acetyldihydrocodeine
  -INDIGO-06102310552D

 25 29  0  0  1  0  0  0  0  0999 V2000
    5.3064    3.3227    0.0000 C   0  0  0  0  0  0  0  0  0  0  0  0
    4.4882    3.2169    0.0000 O   0  0  0  0  0  0  0  0  0  0  0  0
    4.1707    2.4555    0.0000 C   0  0  0  0  0  0  0  0  0  0  0  0
    4.6908    1.7993    0.0000 C   0  0  0  0  0  0  0  0  0  0  0  0
    4.3791    1.0338    0.0000 C   0  0  0  0  0  0  0  0  0  0  0  0
    3.5543    0.9479    0.0000 C   0  0  0  0  0  0  0  0  0  0  0  0
    3.2556    0.1991    0.0000 C   0  0  0  0  0  0  0  0  0  0  0  0
    2.4373    0.1884    0.0000 C   0  0  2  0  0  0  0  0  0  0  0  0
    1.8467    0.9738    0.0000 C   0  0  2  0  0  0  0  0  0  0  0  0
    0.8731    1.1211    0.0000 C   0  0  0  0  0  0  0  0  0  0  0  0
    0.5602    1.8620    0.0000 C   0  0  0  0  0  0  0  0  0  0  0  0
    1.1192    2.4624    0.0000 C   0  0  2  0  0  0  0  0  0  0  0  0
    0.8638    3.2468    0.0000 O   0  0  0  0  0  0  0  0  0  0  0  0
    1.4155    3.8602    0.0000 C   0  0  0  0  0  0  0  0  0  0  0  0
    1.1602    4.6447    0.0000 C   0  0  0  0  0  0  0  0  0  0  0  0
    2.2226    3.6891    0.0000 O   0  0  0  0  0  0  0  0  0  0  0  0
    1.9449    2.3021    0.0000 C   0  0  2  0  0  0  0  0  0  0  0  0
    2.6104    2.8049    0.0000 O   0  0  0  0  0  0  0  0  0  0  0  0
    3.3222    2.3613    0.0000 C   0  0  0  0  0  0  0  0  0  0  0  0
    3.0315    1.5938    0.0000 C   0  0  0  0  0  0  0  0  0  0  0  0
    2.1595    1.4703    0.0000 C   0  0  2  0  0  0  0  0  0  0  0  0
    1.3146    0.8714    0.0000 C   0  0  0  0  0  0  0  0  0  0  0  0
    1.1721   -0.0159    0.0000 C   0  0  0  0  0  0  0  0  0  0  0  0
    1.8935   -0.3998    0.0000 N   0  0  0  0  0  0  0  0  0  0  0  0
    2.0313   -1.2132    0.0000 C   0  0  0  0  0  0  0  0  0  0  0  0
  1  2  1  0  0  0  0
  2  3  1  0  0  0  0
  3  4  4  0  0  0  0
  4  5  4  0  0  0  0
  5  6  4  0  0  0  0
  6  7  1  0  0  0  0
  7  8  1  0  0  0  0
  8  9  1  0  0  0  0
  9 10  1  6  0  0  0
 10 11  1  0  0  0  0
 11 12  1  0  0  0  0
 12 13  1  6  0  0  0
 13 14  1  0  0  0  0
 14 15  1  0  0  0  0
 14 16  2  0  0  0  0
 12 17  1  0  0  0  0
 17 18  1  6  0  0  0
 18 19  1  0  0  0  0
  3 19  4  0  0  0  0
 19 20  4  0  0  0  0
  6 20  4  0  0  0  0
 21 20  1  1  0  0  0
  9 21  1  0  0  0  0
 17 21  1  0  0  0  0
 21 22  1  0  0  0  0
 22 23  1  0  0  0  0
 23 24  1  0  0  0  0
  8 24  1  1  0  0  0
 24 25  1  0  0  0  0
M  END
>  <ID>
69

>  <PREFERRED_NAME>
acetyldihydrocodeine

>  <CAS_RN>
3861-72-1

>  <SYNONYMS>
acetyldihydrocodeine
acetylcodone
dihydrocodeine 6-acetate
dihydrothebacone
O-Acetyldihydrocodeine

>  <URL>
http://drugcentral.org/drugcard/69/view

$$$$
