acetylmethadol
  -INDIGO-06102311022D

 26 27  0  0  0  0  0  0  0  0999 V2000
    0.3446   -0.6822    0.0000 C   0  0  0  0  0  0  0  0  0  0  0  0
    0.9280   -1.2656    0.0000 C   0  0  0  0  0  0  0  0  0  0  0  0
    0.7145   -2.0625    0.0000 C   0  0  0  0  0  0  0  0  0  0  0  0
   -0.0824   -2.2760    0.0000 O   0  0  0  0  0  0  0  0  0  0  0  0
   -0.6658   -1.6927    0.0000 C   0  0  0  0  0  0  0  0  0  0  0  0
   -1.4627   -1.9062    0.0000 C   0  0  0  0  0  0  0  0  0  0  0  0
   -0.4523   -0.8958    0.0000 O   0  0  0  0  0  0  0  0  0  0  0  0
    1.2978   -2.6459    0.0000 C   0  0  0  0  0  0  0  0  0  0  0  0
    1.8812   -2.0625    0.0000 C   0  0  0  0  0  0  0  0  0  0  0  0
    1.6677   -1.2656    0.0000 C   0  0  0  0  0  0  0  0  0  0  0  0
    0.9758   -0.8163    0.0000 C   0  0  0  0  0  0  0  0  0  0  0  0
    2.2510   -0.6822    0.0000 N   0  0  0  0  0  0  0  0  0  0  0  0
    2.0375    0.1146    0.0000 C   0  0  0  0  0  0  0  0  0  0  0  0
    3.0479   -0.8958    0.0000 C   0  0  0  0  0  0  0  0  0  0  0  0
    0.7145   -3.2292    0.0000 C   0  0  0  0  0  0  0  0  0  0  0  0
    0.9280   -4.0261    0.0000 C   0  0  0  0  0  0  0  0  0  0  0  0
    0.3446   -4.6095    0.0000 C   0  0  0  0  0  0  0  0  0  0  0  0
   -0.4523   -4.3960    0.0000 C   0  0  0  0  0  0  0  0  0  0  0  0
   -0.6658   -3.5991    0.0000 C   0  0  0  0  0  0  0  0  0  0  0  0
   -0.0824   -3.0157    0.0000 C   0  0  0  0  0  0  0  0  0  0  0  0
    1.8812   -3.2292    0.0000 C   0  0  0  0  0  0  0  0  0  0  0  0
    2.6781   -3.0157    0.0000 C   0  0  0  0  0  0  0  0  0  0  0  0
    3.2614   -3.5991    0.0000 C   0  0  0  0  0  0  0  0  0  0  0  0
    3.0479   -4.3960    0.0000 C   0  0  0  0  0  0  0  0  0  0  0  0
    2.2510   -4.6095    0.0000 C   0  0  0  0  0  0  0  0  0  0  0  0
    1.6677   -4.0261    0.0000 C   0  0  0  0  0  0  0  0  0  0  0  0
  1  2  1  0  0  0  0
  2  3  1  0  0  0  0
  3  4  1  0  0  0  0
  4  5  1  0  0  0  0
  5  6  1  0  0  0  0
  5  7  2  0  0  0  0
  3  8  1  0  0  0  0
  8  9  1  0  0  0  0
  9 10  1  0  0  0  0
 10 11  1  0  0  0  0
 10 12  1  0  0  0  0
 12 13  1  0  0  0  0
 12 14  1  0  0  0  0
  8 15  1  0  0  0  0
 15 16  4  0  0  0  0
 16 17  4  0  0  0  0
 17 18  4  0  0  0  0
 18 19  4  0  0  0  0
 19 20  4  0  0  0  0
 15 20  4  0  0  0  0
  8 21  1  0  0  0  0
 21 22  4  0  0  0  0
 22 23  4  0  0  0  0
 23 24  4  0  0  0  0
 24 25  4  0  0  0  0
 25 26  4  0  0  0  0
 21 26  4  0  0  0  0
M  END
>  <ID>
1729

>  <PREFERRED_NAME>
acetylmethadol

>  <CAS_RN>
509-74-0

>  <SYNONYMS>
acetylmethadol
methadyl
acemethadone
acetmethadon
acetylmethadone
methadyl acetate

>  <URL>
http://drugcentral.org/drugcard/1729/view

$$$$
