acetylpheneturide
  -INDIGO-06102310552D

 18 18  0  0  0  0  0  0  0  0999 V2000
   -0.8101   -1.8059    0.0000 C   0  0  0  0  0  0  0  0  0  0  0  0
    0.0000   -1.6500    0.0000 C   0  0  0  0  0  0  0  0  0  0  0  0
    0.2700   -0.8704    0.0000 C   0  0  0  0  0  0  0  0  0  0  0  0
    1.0802   -0.7145    0.0000 C   0  0  0  0  0  0  0  0  0  0  0  0
    1.3502    0.0650    0.0000 O   0  0  0  0  0  0  0  0  0  0  0  0
    1.6203   -1.3382    0.0000 N   0  0  0  0  0  0  0  0  0  0  0  0
    2.4304   -1.1823    0.0000 C   0  0  0  0  0  0  0  0  0  0  0  0
    2.7004   -0.4027    0.0000 O   0  0  0  0  0  0  0  0  0  0  0  0
    2.9705   -1.8059    0.0000 N   0  0  0  0  0  0  0  0  0  0  0  0
    3.7806   -1.6500    0.0000 C   0  0  0  0  0  0  0  0  0  0  0  0
    4.3207   -2.2736    0.0000 C   0  0  0  0  0  0  0  0  0  0  0  0
    4.0507   -0.8704    0.0000 O   0  0  0  0  0  0  0  0  0  0  0  0
   -0.2700   -0.2468    0.0000 C   0  0  0  0  0  0  0  0  0  0  0  0
   -1.0802   -0.4027    0.0000 C   0  0  0  0  0  0  0  0  0  0  0  0
   -1.6203    0.2209    0.0000 C   0  0  0  0  0  0  0  0  0  0  0  0
   -1.3502    1.0005    0.0000 C   0  0  0  0  0  0  0  0  0  0  0  0
   -0.5401    1.1564    0.0000 C   0  0  0  0  0  0  0  0  0  0  0  0
    0.0000    0.5327    0.0000 C   0  0  0  0  0  0  0  0  0  0  0  0
  1  2  1  0  0  0  0
  2  3  1  0  0  0  0
  3  4  1  0  0  0  0
  4  5  2  0  0  0  0
  4  6  1  0  0  0  0
  6  7  1  0  0  0  0
  7  8  2  0  0  0  0
  7  9  1  0  0  0  0
  9 10  1  0  0  0  0
 10 11  1  0  0  0  0
 10 12  2  0  0  0  0
  3 13  1  0  0  0  0
 13 14  4  0  0  0  0
 14 15  4  0  0  0  0
 15 16  4  0  0  0  0
 16 17  4  0  0  0  0
 17 18  4  0  0  0  0
 13 18  4  0  0  0  0
M  END
>  <ID>
72

>  <PREFERRED_NAME>
acetylpheneturide

>  <CAS_RN>
13402-08-9

>  <SYNONYMS>
acetylpheneturide
crampol
(+/-)-Acetylpheneturide
P-3981

>  <URL>
http://drugcentral.org/drugcard/72/view

$$$$
