acetyldigoxin
  -INDIGO-06102310552D

 58 65  0  0  1  0  0  0  0  0999 V2000
    9.4481    2.5452    0.0000 C   0  0  0  0  0  0  0  0  0  0  0  0
    8.6360    2.4000    0.0000 C   0  0  1  0  0  0  0  0  0  0  0  0
    8.3557    1.6241    0.0000 O   0  0  0  0  0  0  0  0  0  0  0  0
    7.5435    1.4789    0.0000 C   0  0  2  0  0  0  0  0  0  0  0  0
    7.0117    2.1096    0.0000 C   0  0  0  0  0  0  0  0  0  0  0  0
    7.2920    2.8855    0.0000 C   0  0  2  0  0  0  0  0  0  0  0  0
    6.7602    3.5162    0.0000 O   0  0  0  0  0  0  0  0  0  0  0  0
    8.1041    3.0307    0.0000 C   0  0  2  0  0  0  0  0  0  0  0  0
    8.3844    3.8066    0.0000 O   0  0  0  0  0  0  0  0  0  0  0  0
    7.8526    4.4373    0.0000 C   0  0  1  0  0  0  0  0  0  0  0  0
    7.0405    4.2921    0.0000 C   0  0  0  0  0  0  0  0  0  0  0  0
    6.5087    4.9228    0.0000 C   0  0  2  0  0  0  0  0  0  0  0  0
    5.6966    4.7776    0.0000 O   0  0  0  0  0  0  0  0  0  0  0  0
    6.7890    5.6987    0.0000 C   0  0  2  0  0  0  0  0  0  0  0  0
    6.2572    6.3295    0.0000 O   0  0  0  0  0  0  0  0  0  0  0  0
    6.5375    7.1054    0.0000 C   0  0  1  0  0  0  0  0  0  0  0  0
    6.0056    7.7361    0.0000 C   0  0  0  0  0  0  0  0  0  0  0  0
    6.2859    8.5120    0.0000 C   0  0  2  0  0  0  0  0  0  0  0  0
    5.7541    9.1427    0.0000 O   0  0  0  0  0  0  0  0  0  0  0  0
    7.0981    8.6572    0.0000 C   0  0  2  0  0  0  0  0  0  0  0  0
    7.3784    9.4332    0.0000 O   0  0  0  0  0  0  0  0  0  0  0  0
    8.1905    9.5784    0.0000 C   0  0  0  0  0  0  0  0  0  0  0  0
    8.4708   10.3543    0.0000 C   0  0  0  0  0  0  0  0  0  0  0  0
    8.7223    8.9477    0.0000 O   0  0  0  0  0  0  0  0  0  0  0  0
    7.6299    8.0265    0.0000 C   0  0  1  0  0  0  0  0  0  0  0  0
    8.4420    8.1717    0.0000 C   0  0  0  0  0  0  0  0  0  0  0  0
    7.3496    7.2506    0.0000 O   0  0  0  0  0  0  0  0  0  0  0  0
    7.6011    5.8440    0.0000 C   0  0  1  0  0  0  0  0  0  0  0  0
    7.8814    6.6199    0.0000 C   0  0  0  0  0  0  0  0  0  0  0  0
    8.1329    5.2133    0.0000 O   0  0  0  0  0  0  0  0  0  0  0  0
    7.2632    0.7029    0.0000 O   0  0  0  0  0  0  0  0  0  0  0  0
    6.4511    0.5577    0.0000 C   0  0  1  0  0  0  0  0  0  0  0  0
    6.1708   -0.2182    0.0000 C   0  0  0  0  0  0  0  0  0  0  0  0
    5.3587   -0.3634    0.0000 C   0  0  0  0  0  0  0  0  0  0  0  0
    4.8269    0.2673    0.0000 C   0  0  1  0  0  0  0  0  0  0  0  0
    4.5466   -0.5086    0.0000 C   0  0  0  0  0  0  0  0  0  0  0  0
    5.1072    1.0432    0.0000 C   0  0  2  0  0  0  0  0  0  0  0  0
    4.5754    1.6739    0.0000 C   0  0  0  0  0  0  0  0  0  0  0  0
    3.7633    1.5287    0.0000 C   0  0  0  0  0  0  0  0  0  0  0  0
    3.4830    0.7528    0.0000 C   0  0  2  0  0  0  0  0  0  0  0  0
    4.0148    0.1221    0.0000 C   0  0  2  0  0  0  0  0  0  0  0  0
    3.7345   -0.6539    0.0000 C   0  0  0  0  0  0  0  0  0  0  0  0
    2.9224   -0.7991    0.0000 C   0  0  1  0  0  0  0  0  0  0  0  0
    2.6421   -1.5750    0.0000 O   0  0  0  0  0  0  0  0  0  0  0  0
    2.3905   -0.1684    0.0000 C   0  0  2  0  0  0  0  0  0  0  0  0
    2.0307   -0.9107    0.0000 C   0  0  0  0  0  0  0  0  0  0  0  0
    1.5660   -0.1416    0.0000 C   0  0  2  0  0  0  0  0  0  0  0  0
    1.3367    0.6509    0.0000 C   0  0  0  0  0  0  0  0  0  0  0  0
    2.0195    1.1139    0.0000 C   0  0  0  0  0  0  0  0  0  0  0  0
    2.6708    0.6076    0.0000 C   0  0  2  0  0  0  0  0  0  0  0  0
    2.8685    1.4085    0.0000 O   0  0  0  0  0  0  0  0  0  0  0  0
    1.0596   -0.7929    0.0000 C   0  0  0  0  0  0  0  0  0  0  0  0
    1.2889   -1.5854    0.0000 C   0  0  0  0  0  0  0  0  0  0  0  0
    0.6061   -2.0484    0.0000 C   0  0  0  0  0  0  0  0  0  0  0  0
    0.5793   -2.8729    0.0000 O   0  0  0  0  0  0  0  0  0  0  0  0
   -0.0452   -1.5420    0.0000 O   0  0  0  0  0  0  0  0  0  0  0  0
    0.2351   -0.7661    0.0000 C   0  0  0  0  0  0  0  0  0  0  0  0
    5.9193    1.1884    0.0000 C   0  0  0  0  0  0  0  0  0  0  0  0
  2  1  1  1  0  0  0
  2  3  1  0  0  0  0
  3  4  1  0  0  0  0
  4  5  1  0  0  0  0
  5  6  1  0  0  0  0
  6  7  1  6  0  0  0
  6  8  1  0  0  0  0
  2  8  1  0  0  0  0
  8  9  1  6  0  0  0
 10  9  1  1  0  0  0
 10 11  1  0  0  0  0
 11 12  1  0  0  0  0
 12 13  1  6  0  0  0
 12 14  1  0  0  0  0
 14 15  1  6  0  0  0
 16 15  1  1  0  0  0
 16 17  1  0  0  0  0
 17 18  1  0  0  0  0
 18 19  1  6  0  0  0
 18 20  1  0  0  0  0
 20 21  1  6  0  0  0
 21 22  1  0  0  0  0
 22 23  1  0  0  0  0
 22 24  2  0  0  0  0
 20 25  1  0  0  0  0
 25 26  1  1  0  0  0
 25 27  1  0  0  0  0
 16 27  1  0  0  0  0
 14 28  1  0  0  0  0
 28 29  1  1  0  0  0
 28 30  1  0  0  0  0
 10 30  1  0  0  0  0
  4 31  1  1  0  0  0
 32 31  1  1  0  0  0
 32 33  1  0  0  0  0
 33 34  1  0  0  0  0
 34 35  1  0  0  0  0
 35 36  1  1  0  0  0
 35 37  1  0  0  0  0
 37 38  1  6  0  0  0
 38 39  1  0  0  0  0
 40 39  1  6  0  0  0
 40 41  1  0  0  0  0
 35 41  1  0  0  0  0
 41 42  1  1  0  0  0
 42 43  1  0  0  0  0
 43 44  1  1  0  0  0
 43 45  1  0  0  0  0
 45 46  1  1  0  0  0
 45 47  1  0  0  0  0
 47 48  1  0  0  0  0
 48 49  1  0  0  0  0
 49 50  1  0  0  0  0
 40 50  1  0  0  0  0
 45 50  1  0  0  0  0
 50 51  1  1  0  0  0
 47 52  1  1  0  0  0
 52 53  2  0  0  0  0
 53 54  1  0  0  0  0
 54 55  2  0  0  0  0
 54 56  1  0  0  0  0
 56 57  1  0  0  0  0
 52 57  1  0  0  0  0
 37 58  1  0  0  0  0
 32 58  1  0  0  0  0
M  END
>  <ID>
68

>  <PREFERRED_NAME>
acetyldigoxin

>  <CAS_RN>
5355-48-6

>  <SYNONYMS>
acetyldigoxin
novodigal
beta-Acetyldigoxin
beta acetyldigoxin

>  <URL>
http://drugcentral.org/drugcard/68/view

$$$$
