acyclovir
  -INDIGO-06102310552D

 16 17  0  0  0  0  0  0  0  0999 V2000
   -5.4716    3.8949    0.0000 N   0  0  0  0  0  0  0  0  0  0  0  0
   -5.2166    3.1103    0.0000 C   0  0  0  0  0  0  0  0  0  0  0  0
   -4.4097    2.9388    0.0000 N   0  0  0  0  0  0  0  0  0  0  0  0
   -4.1547    2.1542    0.0000 C   0  0  0  0  0  0  0  0  0  0  0  0
   -4.7067    1.5411    0.0000 C   0  0  0  0  0  0  0  0  0  0  0  0
   -4.2942    0.8266    0.0000 N   0  0  0  0  0  0  0  0  0  0  0  0
   -3.4873    0.9981    0.0000 C   0  0  0  0  0  0  0  0  0  0  0  0
   -3.4010    1.8186    0.0000 N   0  0  0  0  0  0  0  0  0  0  0  0
   -2.6866    2.2311    0.0000 C   0  0  0  0  0  0  0  0  0  0  0  0
   -1.9721    1.8186    0.0000 O   0  0  0  0  0  0  0  0  0  0  0  0
   -1.2576    2.2311    0.0000 C   0  0  0  0  0  0  0  0  0  0  0  0
   -0.5432    1.8186    0.0000 C   0  0  0  0  0  0  0  0  0  0  0  0
    0.1713    2.2311    0.0000 O   0  0  0  0  0  0  0  0  0  0  0  0
   -5.5137    1.7126    0.0000 C   0  0  0  0  0  0  0  0  0  0  0  0
   -6.0658    1.0995    0.0000 O   0  0  0  0  0  0  0  0  0  0  0  0
   -5.7687    2.4972    0.0000 N   0  0  0  0  0  0  0  0  0  0  0  0
  1  2  1  0  0  0  0
  2  3  2  0  0  0  0
  3  4  1  0  0  0  0
  4  5  4  0  0  0  0
  5  6  4  0  0  0  0
  6  7  4  0  0  0  0
  7  8  4  0  0  0  0
  4  8  4  0  0  0  0
  8  9  1  0  0  0  0
  9 10  1  0  0  0  0
 10 11  1  0  0  0  0
 11 12  1  0  0  0  0
 12 13  1  0  0  0  0
  5 14  1  0  0  0  0
 14 15  2  0  0  0  0
 14 16  1  0  0  0  0
  2 16  1  0  0  0  0
M  END
>  <ID>
85

>  <PREFERRED_NAME>
acyclovir

>  <CAS_RN>
59277-89-3

>  <SYNONYMS>
acyclovir
zovirax
aciclovir
acyclovir sodium

>  <URL>
http://drugcentral.org/drugcard/85/view

$$$$
