alectinib
  -INDIGO-06102311182D

 36 41  0  0  0  0  0  0  0  0999 V2000
    6.5581   -0.4144    0.0000 C   0  0  0  0  0  0  0  0  0  0  0  0
    5.7763   -0.6780    0.0000 C   0  0  0  0  0  0  0  0  0  0  0  0
    5.1571   -0.1327    0.0000 C   0  0  0  0  0  0  0  0  0  0  0  0
    4.3754   -0.3963    0.0000 C   0  0  0  0  0  0  0  0  0  0  0  0
    3.7562    0.1489    0.0000 C   0  0  0  0  0  0  0  0  0  0  0  0
    3.9189    0.9577    0.0000 C   0  0  0  0  0  0  0  0  0  0  0  0
    4.7006    1.2213    0.0000 C   0  0  0  0  0  0  0  0  0  0  0  0
    5.3198    0.6761    0.0000 C   0  0  0  0  0  0  0  0  0  0  0  0
    6.1015    0.9396    0.0000 N   0  0  0  0  0  0  0  0  0  0  0  0
    6.2641    1.7485    0.0000 C   0  0  0  0  0  0  0  0  0  0  0  0
    7.0459    2.0120    0.0000 C   0  0  0  0  0  0  0  0  0  0  0  0
    7.6651    1.4668    0.0000 C   0  0  0  0  0  0  0  0  0  0  0  0
    7.5024    0.6580    0.0000 C   0  0  0  0  0  0  0  0  0  0  0  0
    6.7207    0.3944    0.0000 C   0  0  0  0  0  0  0  0  0  0  0  0
    8.4468    1.7304    0.0000 N   0  0  0  0  0  0  0  0  0  0  0  0
    8.6094    2.5392    0.0000 C   0  0  0  0  0  0  0  0  0  0  0  0
    9.3912    2.8028    0.0000 C   0  0  0  0  0  0  0  0  0  0  0  0
   10.0103    2.2575    0.0000 O   0  0  0  0  0  0  0  0  0  0  0  0
    9.8477    1.4487    0.0000 C   0  0  0  0  0  0  0  0  0  0  0  0
    9.0660    1.1851    0.0000 C   0  0  0  0  0  0  0  0  0  0  0  0
    3.2997    1.5030    0.0000 C   0  0  0  0  0  0  0  0  0  0  0  0
    3.9442    2.0180    0.0000 C   0  0  0  0  0  0  0  0  0  0  0  0
    2.9044    2.2271    0.0000 C   0  0  0  0  0  0  0  0  0  0  0  0
    2.5180    1.2394    0.0000 C   0  0  0  0  0  0  0  0  0  0  0  0
    2.3553    0.4306    0.0000 C   0  0  0  0  0  0  0  0  0  0  0  0
    1.5359    0.3353    0.0000 C   0  0  0  0  0  0  0  0  0  0  0  0
    1.0583   -0.3374    0.0000 C   0  0  0  0  0  0  0  0  0  0  0  0
    0.2369   -0.2602    0.0000 C   0  0  0  0  0  0  0  0  0  0  0  0
   -0.1069    0.4897    0.0000 C   0  0  0  0  0  0  0  0  0  0  0  0
    0.3706    1.1624    0.0000 C   0  0  0  0  0  0  0  0  0  0  0  0
    1.1920    1.0852    0.0000 C   0  0  0  0  0  0  0  0  0  0  0  0
    1.7990    1.6440    0.0000 N   0  0  0  0  0  0  0  0  0  0  0  0
   -0.9283    0.5669    0.0000 C   0  0  0  0  0  0  0  0  0  0  0  0
   -1.7497    0.6441    0.0000 N   0  0  0  0  0  0  0  0  0  0  0  0
    2.9745   -0.1146    0.0000 C   0  0  0  0  0  0  0  0  0  0  0  0
    2.8119   -0.9235    0.0000 O   0  0  0  0  0  0  0  0  0  0  0  0
  1  2  1  0  0  0  0
  2  3  1  0  0  0  0
  3  4  4  0  0  0  0
  4  5  4  0  0  0  0
  5  6  4  0  0  0  0
  6  7  4  0  0  0  0
  7  8  4  0  0  0  0
  3  8  4  0  0  0  0
  8  9  1  0  0  0  0
  9 10  1  0  0  0  0
 10 11  1  0  0  0  0
 11 12  1  0  0  0  0
 12 13  1  0  0  0  0
 13 14  1  0  0  0  0
  9 14  1  0  0  0  0
 12 15  1  0  0  0  0
 15 16  1  0  0  0  0
 16 17  1  0  0  0  0
 17 18  1  0  0  0  0
 18 19  1  0  0  0  0
 19 20  1  0  0  0  0
 15 20  1  0  0  0  0
  6 21  1  0  0  0  0
 21 22  1  0  0  0  0
 21 23  1  0  0  0  0
 21 24  1  0  0  0  0
 24 25  4  0  0  0  0
 25 26  4  0  0  0  0
 26 27  4  0  0  0  0
 27 28  4  0  0  0  0
 28 29  4  0  0  0  0
 29 30  4  0  0  0  0
 30 31  4  0  0  0  0
 26 31  4  0  0  0  0
 31 32  4  0  0  0  0
 24 32  4  0  0  0  0
 29 33  1  0  0  0  0
 33 34  3  0  0  0  0
 25 35  1  0  0  0  0
  5 35  1  0  0  0  0
 35 36  2  0  0  0  0
M  STY  1   1 DAT
M  SLB  1   1   1
M  SAL   1  1  32
M  SDT   1 MRV_IMPLICIT_H
M  SDD   1     0.0000    0.0000    DA    ALL  1       1
M  SED   1 IMPL_H1
M  END
>  <ID>
4937

>  <PREFERRED_NAME>
alectinib

>  <CAS_RN>
1256580-46-7

>  <SYNONYMS>
alectinib
alectinib hydrochloride
alecensa
CH5424802
alectinib HCl
RO5424802
RO-5424802

>  <URL>
http://drugcentral.org/drugcard/4937/view

$$$$
