almecillin
  -INDIGO-06102311092D

 21 22  0  0  1  0  0  0  0  0999 V2000
   -5.0414    3.6436    0.0000 C   0  0  0  0  0  0  0  0  0  0  0  0
   -4.5921    2.9517    0.0000 C   0  0  0  0  0  0  0  0  0  0  0  0
   -5.3272    2.5772    0.0000 C   0  0  0  0  0  0  0  0  0  0  0  0
   -3.9509    3.4709    0.0000 S   0  0  0  0  0  0  0  0  0  0  0  0
   -3.2590    3.0216    0.0000 C   0  0  2  0  0  0  0  0  0  0  0  0
   -2.4621    2.8080    0.0000 C   0  0  2  0  0  0  0  0  0  0  0  0
   -1.7477    3.2205    0.0000 N   0  0  0  0  0  0  0  0  0  0  0  0
   -1.0332    2.8080    0.0000 C   0  0  0  0  0  0  0  0  0  0  0  0
   -1.0332    1.9830    0.0000 O   0  0  0  0  0  0  0  0  0  0  0  0
   -0.3187    3.2205    0.0000 C   0  0  0  0  0  0  0  0  0  0  0  0
    0.3957    2.8080    0.0000 S   0  0  0  0  0  0  0  0  0  0  0  0
    1.1102    3.2205    0.0000 C   0  0  0  0  0  0  0  0  0  0  0  0
    1.8247    2.8080    0.0000 C   0  0  0  0  0  0  0  0  0  0  0  0
    2.5392    3.2205    0.0000 C   0  0  0  0  0  0  0  0  0  0  0  0
   -2.6757    2.0111    0.0000 C   0  0  0  0  0  0  0  0  0  0  0  0
   -2.2632    1.2967    0.0000 O   0  0  0  0  0  0  0  0  0  0  0  0
   -3.4726    2.2247    0.0000 N   0  0  0  0  0  0  0  0  0  0  0  0
   -4.2964    2.1815    0.0000 C   0  0  1  0  0  0  0  0  0  0  0  0
   -4.7457    1.4896    0.0000 C   0  0  0  0  0  0  0  0  0  0  0  0
   -5.5696    1.5328    0.0000 O   0  0  0  0  0  0  0  0  0  0  0  0
   -4.3712    0.7545    0.0000 O   0  0  0  0  0  0  0  0  0  0  0  0
  1  2  1  0  0  0  0
  2  3  1  0  0  0  0
  2  4  1  0  0  0  0
  4  5  1  0  0  0  0
  5  6  1  0  0  0  0
  6  7  1  6  0  0  0
  7  8  1  0  0  0  0
  8  9  2  0  0  0  0
  8 10  1  0  0  0  0
 10 11  1  0  0  0  0
 11 12  1  0  0  0  0
 12 13  1  0  0  0  0
 13 14  2  0  0  0  0
  6 15  1  0  0  0  0
 15 16  2  0  0  0  0
 15 17  1  0  0  0  0
  5 17  1  6  0  0  0
 17 18  1  0  0  0  0
  2 18  1  0  0  0  0
 18 19  1  1  0  0  0
 19 20  1  0  0  0  0
 19 21  2  0  0  0  0
M  END
>  <ID>
3422

>  <PREFERRED_NAME>
almecillin

>  <CAS_RN>
87-09-2

>  <SYNONYMS>
almecillin
allomercaptomethylpenicillin
allylmercaptomethylpenicillin
allylmercaptomethylpenicillinic acid
allylthiomethylpenicillin
Penicillin O

>  <URL>
http://drugcentral.org/drugcard/3422/view

$$$$
