alpelisib
  -INDIGO-06102311212D

 30 32  0  0  1  0  0  0  0  0999 V2000
    0.7145   -0.4125    0.0000 C   0  0  0  0  0  0  0  0  0  0  0  0
    0.7145   -1.2375    0.0000 C   0  0  0  0  0  0  0  0  0  0  0  0
    1.3819   -1.7224    0.0000 C   0  0  0  0  0  0  0  0  0  0  0  0
    1.1270   -2.5070    0.0000 S   0  0  0  0  0  0  0  0  0  0  0  0
    0.3020   -2.5070    0.0000 C   0  0  0  0  0  0  0  0  0  0  0  0
   -0.1830   -3.1745    0.0000 N   0  0  0  0  0  0  0  0  0  0  0  0
   -1.0034   -3.0882    0.0000 C   0  0  0  0  0  0  0  0  0  0  0  0
   -1.3390   -2.3346    0.0000 O   0  0  0  0  0  0  0  0  0  0  0  0
   -1.4884   -3.7557    0.0000 N   0  0  0  0  0  0  0  0  0  0  0  0
   -1.2334   -4.5403    0.0000 C   0  0  0  0  0  0  0  0  0  0  0  0
   -1.9009   -5.0252    0.0000 C   0  0  0  0  0  0  0  0  0  0  0  0
   -2.5683   -4.5403    0.0000 C   0  0  0  0  0  0  0  0  0  0  0  0
   -2.3134   -3.7557    0.0000 C   0  0  1  0  0  0  0  0  0  0  0  0
   -2.7983   -3.0882    0.0000 C   0  0  0  0  0  0  0  0  0  0  0  0
   -3.6188   -3.1745    0.0000 N   0  0  0  0  0  0  0  0  0  0  0  0
   -2.4627   -2.3346    0.0000 O   0  0  0  0  0  0  0  0  0  0  0  0
    0.0470   -1.7224    0.0000 N   0  0  0  0  0  0  0  0  0  0  0  0
    2.1665   -1.4675    0.0000 C   0  0  0  0  0  0  0  0  0  0  0  0
    2.3381   -0.6605    0.0000 C   0  0  0  0  0  0  0  0  0  0  0  0
    3.1227   -0.4056    0.0000 C   0  0  0  0  0  0  0  0  0  0  0  0
    3.7358   -0.9576    0.0000 N   0  0  0  0  0  0  0  0  0  0  0  0
    3.5642   -1.7646    0.0000 C   0  0  0  0  0  0  0  0  0  0  0  0
    2.7796   -2.0195    0.0000 C   0  0  0  0  0  0  0  0  0  0  0  0
    3.2942    0.4014    0.0000 C   0  0  0  0  0  0  0  0  0  0  0  0
    4.1012    0.2299    0.0000 C   0  0  0  0  0  0  0  0  0  0  0  0
    2.4872    0.5729    0.0000 C   0  0  0  0  0  0  0  0  0  0  0  0
    3.4657    1.2084    0.0000 C   0  0  0  0  0  0  0  0  0  0  0  0
    3.6373    2.0153    0.0000 F   0  0  0  0  0  0  0  0  0  0  0  0
    4.2727    1.0368    0.0000 F   0  0  0  0  0  0  0  0  0  0  0  0
    2.6588    1.3799    0.0000 F   0  0  0  0  0  0  0  0  0  0  0  0
  1  2  1  0  0  0  0
  2  3  4  0  0  0  0
  3  4  4  0  0  0  0
  4  5  4  0  0  0  0
  5  6  1  0  0  0  0
  6  7  1  0  0  0  0
  7  8  2  0  0  0  0
  7  9  1  0  0  0  0
  9 10  1  0  0  0  0
 10 11  1  0  0  0  0
 11 12  1  0  0  0  0
 12 13  1  0  0  0  0
  9 13  1  0  0  0  0
 13 14  1  1  0  0  0
 14 15  1  0  0  0  0
 14 16  2  0  0  0  0
  5 17  4  0  0  0  0
  2 17  4  0  0  0  0
  3 18  1  0  0  0  0
 18 19  4  0  0  0  0
 19 20  4  0  0  0  0
 20 21  4  0  0  0  0
 21 22  4  0  0  0  0
 22 23  4  0  0  0  0
 18 23  4  0  0  0  0
 20 24  1  0  0  0  0
 24 25  1  0  0  0  0
 24 26  1  0  0  0  0
 24 27  1  0  0  0  0
 27 28  1  0  0  0  0
 27 29  1  0  0  0  0
 27 30  1  0  0  0  0
M  END
>  <ID>
5328

>  <PREFERRED_NAME>
alpelisib

>  <CAS_RN>
1217486-61-7

>  <SYNONYMS>
alpelisib
piqray
BYL-719
NVP-BYL-719
vijoice

>  <URL>
http://drugcentral.org/drugcard/5328/view

$$$$
