aluminium oxide
  -INDIGO-06102311122D

  5  6  0  0  0  0  0  0  0  0999 V2000
   -0.1388    0.3352    0.0000 O   0  0  0  0  0  0  0  0  0  0  0  0
    0.4445    0.9185    0.0000 Al  0  0  0  0  0  0  0  0  0  0  0  0
    1.0279    0.3352    0.0000 O   0  0  0  0  0  0  0  0  0  0  0  0
    0.4445   -0.2482    0.0000 Al  0  0  0  0  0  0  0  0  0  0  0  0
    0.5904    0.3352    0.0000 O   0  0  0  0  0  0  0  0  0  0  0  0
  1  2  1  0  0  0  0
  2  3  1  0  0  0  0
  3  4  1  0  0  0  0
  1  4  1  0  0  0  0
  4  5  1  0  0  0  0
  2  5  1  0  0  0  0
M  END
>  <ID>
4438

>  <PREFERRED_NAME>
aluminium oxide

>  <CAS_RN>
1344-28-1

>  <SYNONYMS>
aluminium oxide

>  <URL>
http://drugcentral.org/drugcard/4438/view

$$$$
