amineptine
  -INDIGO-06102310552D

 25 27  0  0  0  0  0  0  0  0999 V2000
    0.2961   -5.4151    0.0000 O   0  0  0  0  0  0  0  0  0  0  0  0
    1.0105   -5.8276    0.0000 C   0  0  0  0  0  0  0  0  0  0  0  0
    1.0105   -6.6526    0.0000 O   0  0  0  0  0  0  0  0  0  0  0  0
    1.7250   -5.4151    0.0000 C   0  0  0  0  0  0  0  0  0  0  0  0
    2.4395   -5.8276    0.0000 C   0  0  0  0  0  0  0  0  0  0  0  0
    3.1539   -5.4151    0.0000 C   0  0  0  0  0  0  0  0  0  0  0  0
    3.8684   -5.8276    0.0000 C   0  0  0  0  0  0  0  0  0  0  0  0
    4.5829   -5.4151    0.0000 C   0  0  0  0  0  0  0  0  0  0  0  0
    5.2974   -5.8276    0.0000 C   0  0  0  0  0  0  0  0  0  0  0  0
    6.0118   -5.4151    0.0000 N   0  0  0  0  0  0  0  0  0  0  0  0
    6.7263   -5.8276    0.0000 C   0  0  0  0  0  0  0  0  0  0  0  0
    7.4079   -5.3628    0.0000 C   0  0  0  0  0  0  0  0  0  0  0  0
    7.2244   -4.5585    0.0000 C   0  0  0  0  0  0  0  0  0  0  0  0
    7.8291   -3.9974    0.0000 C   0  0  0  0  0  0  0  0  0  0  0  0
    8.6175   -4.2405    0.0000 C   0  0  0  0  0  0  0  0  0  0  0  0
    8.8011   -5.0449    0.0000 C   0  0  0  0  0  0  0  0  0  0  0  0
    8.1963   -5.6060    0.0000 C   0  0  0  0  0  0  0  0  0  0  0  0
    8.4977   -6.3740    0.0000 C   0  0  0  0  0  0  0  0  0  0  0  0
    8.0852   -7.0884    0.0000 C   0  0  0  0  0  0  0  0  0  0  0  0
    7.2694   -7.2114    0.0000 C   0  0  0  0  0  0  0  0  0  0  0  0
    7.0858   -8.0157    0.0000 C   0  0  0  0  0  0  0  0  0  0  0  0
    6.2975   -8.2589    0.0000 C   0  0  0  0  0  0  0  0  0  0  0  0
    5.6927   -7.6978    0.0000 C   0  0  0  0  0  0  0  0  0  0  0  0
    5.8763   -6.8934    0.0000 C   0  0  0  0  0  0  0  0  0  0  0  0
    6.6646   -6.6503    0.0000 C   0  0  0  0  0  0  0  0  0  0  0  0
  1  2  1  0  0  0  0
  2  3  2  0  0  0  0
  2  4  1  0  0  0  0
  4  5  1  0  0  0  0
  5  6  1  0  0  0  0
  6  7  1  0  0  0  0
  7  8  1  0  0  0  0
  8  9  1  0  0  0  0
  9 10  1  0  0  0  0
 10 11  1  0  0  0  0
 11 12  1  0  0  0  0
 12 13  4  0  0  0  0
 13 14  4  0  0  0  0
 14 15  4  0  0  0  0
 15 16  4  0  0  0  0
 16 17  4  0  0  0  0
 12 17  4  0  0  0  0
 17 18  1  0  0  0  0
 18 19  1  0  0  0  0
 19 20  1  0  0  0  0
 20 21  4  0  0  0  0
 21 22  4  0  0  0  0
 22 23  4  0  0  0  0
 23 24  4  0  0  0  0
 24 25  4  0  0  0  0
 11 25  1  0  0  0  0
 20 25  4  0  0  0  0
M  END
>  <ID>
161

>  <PREFERRED_NAME>
amineptine

>  <CAS_RN>
57574-09-1

>  <SYNONYMS>
amineptine
survector
amineptine hydrochloride
amineptine HCl
amineptin
amineptin sodium

>  <URL>
http://drugcentral.org/drugcard/161/view

$$$$
