amisulpride
  -INDIGO-06102310552D

 25 26  0  0  0  0  0  0  0  0999 V2000
   -0.6078   -1.2991    0.0000 C   0  0  0  0  0  0  0  0  0  0  0  0
   -1.3222   -1.7116    0.0000 C   0  0  0  0  0  0  0  0  0  0  0  0
   -1.3222   -2.5366    0.0000 N   0  0  0  0  0  0  0  0  0  0  0  0
   -0.6548   -3.0215    0.0000 C   0  0  0  0  0  0  0  0  0  0  0  0
   -0.9097   -3.8062    0.0000 C   0  0  0  0  0  0  0  0  0  0  0  0
   -1.7347   -3.8062    0.0000 C   0  0  0  0  0  0  0  0  0  0  0  0
   -1.9897   -3.0215    0.0000 C   0  0  0  0  0  0  0  0  0  0  0  0
   -2.7743   -2.7666    0.0000 C   0  0  0  0  0  0  0  0  0  0  0  0
   -3.3874   -3.3186    0.0000 N   0  0  0  0  0  0  0  0  0  0  0  0
   -4.1720   -3.0637    0.0000 C   0  0  0  0  0  0  0  0  0  0  0  0
   -4.3435   -2.2567    0.0000 O   0  0  0  0  0  0  0  0  0  0  0  0
   -4.7851   -3.6157    0.0000 C   0  0  0  0  0  0  0  0  0  0  0  0
   -4.6136   -4.4227    0.0000 C   0  0  0  0  0  0  0  0  0  0  0  0
   -3.8290   -4.6776    0.0000 O   0  0  0  0  0  0  0  0  0  0  0  0
   -3.6574   -5.4846    0.0000 C   0  0  0  0  0  0  0  0  0  0  0  0
   -5.2267   -4.9747    0.0000 C   0  0  0  0  0  0  0  0  0  0  0  0
   -6.0113   -4.7198    0.0000 C   0  0  0  0  0  0  0  0  0  0  0  0
   -6.6244   -5.2718    0.0000 N   0  0  0  0  0  0  0  0  0  0  0  0
   -6.1828   -3.9128    0.0000 C   0  0  0  0  0  0  0  0  0  0  0  0
   -5.5697   -3.3608    0.0000 C   0  0  0  0  0  0  0  0  0  0  0  0
   -6.9674   -3.6579    0.0000 S   0  0  0  0  0  0  0  0  0  0  0  0
   -6.7125   -2.8732    0.0000 O   0  0  0  0  0  0  0  0  0  0  0  0
   -7.2224   -4.4425    0.0000 O   0  0  0  0  0  0  0  0  0  0  0  0
   -7.7521   -3.4029    0.0000 C   0  0  0  0  0  0  0  0  0  0  0  0
   -8.3652   -3.9550    0.0000 C   0  0  0  0  0  0  0  0  0  0  0  0
  1  2  1  0  0  0  0
  2  3  1  0  0  0  0
  3  4  1  0  0  0  0
  4  5  1  0  0  0  0
  5  6  1  0  0  0  0
  6  7  1  0  0  0  0
  3  7  1  0  0  0  0
  7  8  1  0  0  0  0
  8  9  1  0  0  0  0
  9 10  1  0  0  0  0
 10 11  2  0  0  0  0
 10 12  1  0  0  0  0
 12 13  4  0  0  0  0
 13 14  1  0  0  0  0
 14 15  1  0  0  0  0
 13 16  4  0  0  0  0
 16 17  4  0  0  0  0
 17 18  1  0  0  0  0
 17 19  4  0  0  0  0
 19 20  4  0  0  0  0
 12 20  4  0  0  0  0
 19 21  1  0  0  0  0
 21 22  2  0  0  0  0
 21 23  2  0  0  0  0
 21 24  1  0  0  0  0
 24 25  1  0  0  0  0
M  END
>  <ID>
179

>  <PREFERRED_NAME>
amisulpride

>  <CAS_RN>
71675-85-9

>  <SYNONYMS>
amisulpride
barhemsys
aminosultopride
deniban
solian

>  <URL>
http://drugcentral.org/drugcard/179/view

$$$$
