amphomycin
  -INDIGO-06102311232D

 94 96  0  0  1  0  0  0  0  0999 V2000
   39.6874   -9.2984    0.0000 H   0  0  0  0  0  0  0  0  0  0  0  0
   40.3657   -8.8288    0.0000 C   0  0  2  0  0  0  0  0  0  0  0  0
   40.9622   -8.2589    0.0000 C   0  0  0  0  0  0  0  0  0  0  0  0
   40.6045   -7.5155    0.0000 C   0  0  0  0  0  0  0  0  0  0  0  0
   39.7869   -7.6259    0.0000 C   0  0  0  0  0  0  0  0  0  0  0  0
   39.6393   -8.4376    0.0000 N   0  0  0  0  0  0  0  0  0  0  0  0
   38.8959   -8.7953    0.0000 C   0  0  0  0  0  0  0  0  0  0  0  0
   38.8339   -9.6179    0.0000 O   0  0  0  0  0  0  0  0  0  0  0  0
   38.2144   -8.3303    0.0000 C   0  0  1  0  0  0  0  0  0  0  0  0
   37.4710   -8.6880    0.0000 N   0  0  0  0  0  0  0  0  0  0  0  0
   36.7895   -8.2230    0.0000 C   0  0  0  0  0  0  0  0  0  0  0  0
   36.8515   -7.4003    0.0000 O   0  0  0  0  0  0  0  0  0  0  0  0
   36.0461   -8.5807    0.0000 C   0  0  2  0  0  0  0  0  0  0  0  0
   35.3646   -8.1157    0.0000 N   0  0  0  0  0  0  0  0  0  0  0  0
   34.6212   -8.4734    0.0000 C   0  0  0  0  0  0  0  0  0  0  0  0
   34.5592   -9.2960    0.0000 O   0  0  0  0  0  0  0  0  0  0  0  0
   33.9397   -8.0084    0.0000 C   0  0  0  0  0  0  0  0  0  0  0  0
   33.1963   -8.3660    0.0000 N   0  0  0  0  0  0  0  0  0  0  0  0
   32.5148   -7.9011    0.0000 C   0  0  0  0  0  0  0  0  0  0  0  0
   32.5767   -7.0784    0.0000 O   0  0  0  0  0  0  0  0  0  0  0  0
   31.7714   -8.2587    0.0000 C   0  0  2  0  0  0  0  0  0  0  0  0
   31.7094   -9.0814    0.0000 C   0  0  0  0  0  0  0  0  0  0  0  0
   32.3909   -9.5464    0.0000 C   0  0  0  0  0  0  0  0  0  0  0  0
   32.3289  -10.3691    0.0000 O   0  0  0  0  0  0  0  0  0  0  0  0
   33.1343   -9.1887    0.0000 O   0  0  0  0  0  0  0  0  0  0  0  0
   31.0899   -7.7938    0.0000 N   0  0  0  0  0  0  0  0  0  0  0  0
   30.3465   -8.1514    0.0000 C   0  0  0  0  0  0  0  0  0  0  0  0
   30.2845   -8.9741    0.0000 O   0  0  0  0  0  0  0  0  0  0  0  0
   29.6650   -7.6865    0.0000 C   0  0  0  0  0  0  0  0  0  0  0  0
   28.9215   -8.0441    0.0000 N   0  0  0  0  0  0  0  0  0  0  0  0
   28.2401   -7.5791    0.0000 C   0  0  0  0  0  0  0  0  0  0  0  0
   28.3020   -6.7565    0.0000 O   0  0  0  0  0  0  0  0  0  0  0  0
   27.4966   -7.9368    0.0000 C   0  0  2  0  0  0  0  0  0  0  0  0
   27.4347   -8.7595    0.0000 C   0  0  0  0  0  0  0  0  0  0  0  0
   28.1162   -9.2245    0.0000 C   0  0  0  0  0  0  0  0  0  0  0  0
   28.0542  -10.0472    0.0000 O   0  0  0  0  0  0  0  0  0  0  0  0
   28.8596   -8.8668    0.0000 O   0  0  0  0  0  0  0  0  0  0  0  0
   26.8152   -7.4718    0.0000 N   0  0  0  0  0  0  0  0  0  0  0  0
   26.0717   -7.8295    0.0000 C   0  0  0  0  0  0  0  0  0  0  0  0
   26.0098   -8.6522    0.0000 O   0  0  0  0  0  0  0  0  0  0  0  0
   25.3903   -7.3645    0.0000 C   0  0  1  0  0  0  0  0  0  0  0  0
   24.6468   -7.7222    0.0000 N   0  0  0  0  0  0  0  0  0  0  0  0
   23.9653   -7.2572    0.0000 C   0  0  0  0  0  0  0  0  0  0  0  0
   24.0273   -6.4346    0.0000 O   0  0  0  0  0  0  0  0  0  0  0  0
   23.2219   -7.6149    0.0000 C   0  0  2  0  0  0  0  0  0  0  0  0
   23.1600   -8.4376    0.0000 C   0  0  0  0  0  0  0  0  0  0  0  0
   23.8414   -8.9026    0.0000 C   0  0  0  0  0  0  0  0  0  0  0  0
   23.7795   -9.7252    0.0000 O   0  0  0  0  0  0  0  0  0  0  0  0
   24.5849   -8.5449    0.0000 O   0  0  0  0  0  0  0  0  0  0  0  0
   22.5404   -7.1499    0.0000 N   0  0  0  0  0  0  0  0  0  0  0  0
   21.7970   -7.5076    0.0000 C   0  0  0  0  0  0  0  0  0  0  0  0
   21.7351   -8.3303    0.0000 O   0  0  0  0  0  0  0  0  0  0  0  0
   21.1155   -7.0426    0.0000 C   0  0  0  0  0  0  0  0  0  0  0  0
   20.3721   -7.4003    0.0000 C   0  0  0  0  0  0  0  0  0  0  0  0
   19.6906   -6.9353    0.0000 C   0  0  0  0  0  0  0  0  0  0  0  0
   18.9472   -7.2930    0.0000 C   0  0  0  0  0  0  0  0  0  0  0  0
   18.8852   -8.1157    0.0000 C   0  0  0  0  0  0  0  0  0  0  0  0
   18.1418   -8.4734    0.0000 C   0  0  0  0  0  0  0  0  0  0  0  0
   18.0799   -9.2960    0.0000 C   0  0  0  0  0  0  0  0  0  0  0  0
   17.3364   -9.6537    0.0000 C   0  0  0  0  0  0  0  0  0  0  0  0
   17.2745  -10.4764    0.0000 C   0  0  0  0  0  0  0  0  0  0  0  0
   17.9560  -10.9414    0.0000 C   0  0  0  0  0  0  0  0  0  0  0  0
   16.5310  -10.8341    0.0000 C   0  0  0  0  0  0  0  0  0  0  0  0
   16.4691  -11.6567    0.0000 C   0  0  0  0  0  0  0  0  0  0  0  0
   25.4522   -6.5419    0.0000 C   0  0  0  0  0  0  0  0  0  0  0  0
   24.7707   -6.0769    0.0000 C   0  0  0  0  0  0  0  0  0  0  0  0
   26.1956   -6.1842    0.0000 C   0  0  0  0  0  0  0  0  0  0  0  0
   26.8771   -6.6492    0.0000 O   0  0  0  0  0  0  0  0  0  0  0  0
   26.2576   -5.3615    0.0000 O   0  0  0  0  0  0  0  0  0  0  0  0
   35.9841   -9.4033    0.0000 C   0  0  2  0  0  0  0  0  0  0  0  0
   35.2407   -9.7610    0.0000 C   0  0  0  0  0  0  0  0  0  0  0  0
   36.6656   -9.8683    0.0000 N   0  0  0  0  0  0  0  0  0  0  0  0
   38.2764   -7.5076    0.0000 C   0  0  0  0  0  0  0  0  0  0  0  0
   39.0198   -7.1499    0.0000 C   0  0  0  0  0  0  0  0  0  0  0  0
   37.5949   -7.0426    0.0000 C   0  0  0  0  0  0  0  0  0  0  0  0
   40.4761   -9.6464    0.0000 C   0  0  0  0  0  0  0  0  0  0  0  0
   39.8233  -10.1508    0.0000 O   0  0  0  0  0  0  0  0  0  0  0  0
   41.2394   -9.9595    0.0000 N   0  0  0  0  0  0  0  0  0  0  0  0
   41.3498  -10.7771    0.0000 C   0  0  1  0  0  0  0  0  0  0  0  0
   40.6970  -11.2815    0.0000 C   0  0  0  0  0  0  0  0  0  0  0  0
   42.1131  -11.0902    0.0000 C   0  0  2  0  0  0  0  0  0  0  0  0
   41.4603  -11.5947    0.0000 H   0  0  0  0  0  0  0  0  0  0  0  0
   42.7659  -10.5858    0.0000 N   0  0  0  0  0  0  0  0  0  0  0  0
   43.5292  -10.8989    0.0000 C   0  0  0  0  0  0  0  0  0  0  0  0
   44.1820  -10.3945    0.0000 O   0  0  0  0  0  0  0  0  0  0  0  0
   43.6396  -11.7165    0.0000 C   0  0  1  0  0  0  0  0  0  0  0  0
   43.7501  -12.5341    0.0000 H   0  0  0  0  0  0  0  0  0  0  0  0
   44.4029  -12.0296    0.0000 C   0  0  0  0  0  0  0  0  0  0  0  0
   44.5133  -12.8472    0.0000 C   0  0  0  0  0  0  0  0  0  0  0  0
   43.8605  -13.3516    0.0000 C   0  0  0  0  0  0  0  0  0  0  0  0
   43.0972  -13.0385    0.0000 C   0  0  0  0  0  0  0  0  0  0  0  0
   42.9868  -12.2209    0.0000 N   0  0  0  0  0  0  0  0  0  0  0  0
   42.2235  -11.9078    0.0000 C   0  0  0  0  0  0  0  0  0  0  0  0
   41.5707  -12.4122    0.0000 O   0  0  0  0  0  0  0  0  0  0  0  0
  2  1  1  6  0  0  0
  2  3  1  0  0  0  0
  3  4  1  0  0  0  0
  4  5  1  0  0  0  0
  5  6  1  0  0  0  0
  2  6  1  0  0  0  0
  6  7  1  0  0  0  0
  7  8  2  0  0  0  0
  7  9  1  0  0  0  0
  9 10  1  1  0  0  0
 10 11  1  0  0  0  0
 11 12  2  0  0  0  0
 11 13  1  0  0  0  0
 13 14  1  1  0  0  0
 14 15  1  0  0  0  0
 15 16  2  0  0  0  0
 15 17  1  0  0  0  0
 17 18  1  0  0  0  0
 18 19  1  0  0  0  0
 19 20  2  0  0  0  0
 19 21  1  0  0  0  0
 21 22  1  0  0  0  0
 22 23  1  0  0  0  0
 23 24  1  0  0  0  0
 23 25  2  0  0  0  0
 21 26  1  6  0  0  0
 26 27  1  0  0  0  0
 27 28  2  0  0  0  0
 27 29  1  0  0  0  0
 29 30  1  0  0  0  0
 30 31  1  0  0  0  0
 31 32  2  0  0  0  0
 31 33  1  0  0  0  0
 33 34  1  0  0  0  0
 34 35  1  0  0  0  0
 35 36  1  0  0  0  0
 35 37  2  0  0  0  0
 33 38  1  6  0  0  0
 38 39  1  0  0  0  0
 39 40  2  0  0  0  0
 39 41  1  0  0  0  0
 41 42  1  1  0  0  0
 42 43  1  0  0  0  0
 43 44  2  0  0  0  0
 43 45  1  0  0  0  0
 45 46  1  0  0  0  0
 46 47  1  0  0  0  0
 47 48  1  0  0  0  0
 47 49  2  0  0  0  0
 45 50  1  6  0  0  0
 50 51  1  0  0  0  0
 51 52  2  0  0  0  0
 51 53  1  0  0  0  0
 53 54  1  0  0  0  0
 54 55  2  0  0  0  0
 55 56  1  0  0  0  0
 56 57  1  0  0  0  0
 57 58  1  0  0  0  0
 58 59  1  0  0  0  0
 59 60  1  0  0  0  0
 60 61  1  0  0  0  0
 61 62  1  0  0  0  0
 61 63  1  0  0  0  0
 63 64  1  0  0  0  0
 41 65  1  0  0  0  0
 65 66  1  0  0  0  0
 65 67  1  0  0  0  0
 67 68  1  0  0  0  0
 67 69  2  0  0  0  0
 13 70  1  0  0  0  0
 70 71  1  0  0  0  0
 70 72  1  1  0  0  0
  9 73  1  0  0  0  0
 73 74  1  0  0  0  0
 73 75  1  0  0  0  0
  2 76  1  1  0  0  0
 76 77  2  0  0  0  0
 76 78  1  0  0  0  0
 78 79  1  0  0  0  0
 79 80  1  6  0  0  0
 81 79  1  6  0  0  0
 81 82  1  1  0  0  0
 81 83  1  0  0  0  0
 83 84  1  0  0  0  0
 84 85  2  0  0  0  0
 84 86  1  0  0  0  0
 86 87  1  6  0  0  0
 86 88  1  0  0  0  0
 88 89  1  0  0  0  0
 89 90  1  0  0  0  0
 90 91  1  0  0  0  0
 91 92  1  0  0  0  0
 86 92  1  0  0  0  0
 92 93  1  0  0  0  0
 81 93  1  0  0  0  0
 93 94  2  0  0  0  0
M  END
>  <ID>
5550

>  <PREFERRED_NAME>
amphomycin

>  <CAS_RN>
1402-82-0

>  <SYNONYMS>
amphomycin
amfomycin
amphomycin calcium

>  <URL>
http://drugcentral.org/drugcard/5550/view

$$$$
