anagestone acetate
  -INDIGO-06102310552D

 27 30  0  0  1  0  0  0  0  0999 V2000
    1.4978    2.4498    0.0000 C   0  0  0  0  0  0  0  0  0  0  0  0
    1.7781    1.6739    0.0000 C   0  0  1  0  0  0  0  0  0  0  0  0
    2.5902    1.5287    0.0000 C   0  0  0  0  0  0  0  0  0  0  0  0
    2.8705    0.7528    0.0000 C   0  0  1  0  0  0  0  0  0  0  0  0
    3.6826    0.6076    0.0000 C   0  0  2  0  0  0  0  0  0  0  0  0
    4.3340    1.1139    0.0000 C   0  0  0  0  0  0  0  0  0  0  0  0
    5.0168    0.6509    0.0000 C   0  0  0  0  0  0  0  0  0  0  0  0
    4.7875   -0.1416    0.0000 C   0  0  2  0  0  0  0  0  0  0  0  0
    4.7280   -0.9644    0.0000 O   0  0  0  0  0  0  0  0  0  0  0  0
    5.4108   -1.4274    0.0000 C   0  0  0  0  0  0  0  0  0  0  0  0
    5.3513   -2.2502    0.0000 C   0  0  0  0  0  0  0  0  0  0  0  0
    6.1532   -1.0675    0.0000 O   0  0  0  0  0  0  0  0  0  0  0  0
    5.5996   -0.2868    0.0000 C   0  0  0  0  0  0  0  0  0  0  0  0
    6.1315    0.3439    0.0000 C   0  0  0  0  0  0  0  0  0  0  0  0
    6.2825   -0.7497    0.0000 O   0  0  0  0  0  0  0  0  0  0  0  0
    3.9629   -0.1684    0.0000 C   0  0  2  0  0  0  0  0  0  0  0  0
    4.3228   -0.9107    0.0000 C   0  0  0  0  0  0  0  0  0  0  0  0
    3.4311   -0.7991    0.0000 C   0  0  0  0  0  0  0  0  0  0  0  0
    2.6190   -0.6539    0.0000 C   0  0  0  0  0  0  0  0  0  0  0  0
    2.3387    0.1221    0.0000 C   0  0  2  0  0  0  0  0  0  0  0  0
    1.5266    0.2673    0.0000 C   0  0  1  0  0  0  0  0  0  0  0  0
    1.8069   -0.5086    0.0000 C   0  0  0  0  0  0  0  0  0  0  0  0
    0.9948   -0.3634    0.0000 C   0  0  0  0  0  0  0  0  0  0  0  0
    0.1827   -0.2182    0.0000 C   0  0  0  0  0  0  0  0  0  0  0  0
   -0.0976    0.5577    0.0000 C   0  0  0  0  0  0  0  0  0  0  0  0
    0.4342    1.1884    0.0000 C   0  0  0  0  0  0  0  0  0  0  0  0
    1.2463    1.0432    0.0000 C   0  0  0  0  0  0  0  0  0  0  0  0
  2  1  1  1  0  0  0
  2  3  1  0  0  0  0
  4  3  1  1  0  0  0
  4  5  1  0  0  0  0
  5  6  1  6  0  0  0
  6  7  1  0  0  0  0
  7  8  1  0  0  0  0
  8  9  1  1  0  0  0
  9 10  1  0  0  0  0
 10 11  1  0  0  0  0
 10 12  2  0  0  0  0
  8 13  1  6  0  0  0
 13 14  1  0  0  0  0
 13 15  2  0  0  0  0
  8 16  1  0  0  0  0
  5 16  1  0  0  0  0
 16 17  1  6  0  0  0
 16 18  1  0  0  0  0
 18 19  1  0  0  0  0
 20 19  1  6  0  0  0
  4 20  1  0  0  0  0
 20 21  1  0  0  0  0
 21 22  1  6  0  0  0
 21 23  1  0  0  0  0
 23 24  1  0  0  0  0
 24 25  1  0  0  0  0
 25 26  1  0  0  0  0
 26 27  2  0  0  0  0
  2 27  1  0  0  0  0
 21 27  1  0  0  0  0
M  END
>  <ID>
208

>  <PREFERRED_NAME>
anagestone acetate

>  <CAS_RN>
3137-73-3

>  <SYNONYMS>
anagestone acetate
anatropin

>  <URL>
http://drugcentral.org/drugcard/208/view

$$$$
