ancitabine
  -INDIGO-06102310552D

 16 18  0  0  1  0  0  0  0  0999 V2000
    5.0807    0.3730    0.0000 O   0  0  0  0  0  0  0  0  0  0  0  0
    4.4568    0.9128    0.0000 C   0  0  0  0  0  0  0  0  0  0  0  0
    3.6774    0.6425    0.0000 C   0  0  1  0  0  0  0  0  0  0  0  0
    3.0005    1.1142    0.0000 O   0  0  0  0  0  0  0  0  0  0  0  0
    2.3427    0.6162    0.0000 C   0  0  2  0  0  0  0  0  0  0  0  0
    2.6131   -0.1633    0.0000 C   0  0  1  0  0  0  0  0  0  0  0  0
    1.9554   -0.6613    0.0000 O   0  0  0  0  0  0  0  0  0  0  0  0
    1.2785   -0.1896    0.0000 C   0  0  0  0  0  0  0  0  0  0  0  0
    0.4750   -0.3770    0.0000 N   0  0  0  0  0  0  0  0  0  0  0  0
   -0.0890    0.2251    0.0000 C   0  0  0  0  0  0  0  0  0  0  0  0
   -0.8924    0.0377    0.0000 N   0  0  0  0  0  0  0  0  0  0  0  0
    0.1505    1.0146    0.0000 C   0  0  0  0  0  0  0  0  0  0  0  0
    0.9539    1.2020    0.0000 C   0  0  0  0  0  0  0  0  0  0  0  0
    1.5179    0.5999    0.0000 N   0  0  0  0  0  0  0  0  0  0  0  0
    3.4379   -0.1470    0.0000 C   0  0  2  0  0  0  0  0  0  0  0  0
    3.9359   -0.8048    0.0000 O   0  0  0  0  0  0  0  0  0  0  0  0
  1  2  1  0  0  0  0
  3  2  1  6  0  0  0
  3  4  1  0  0  0  0
  4  5  1  0  0  0  0
  5  6  1  0  0  0  0
  6  7  1  6  0  0  0
  7  8  1  0  0  0  0
  8  9  2  0  0  0  0
  9 10  1  0  0  0  0
 10 11  2  0  0  0  0
 10 12  1  0  0  0  0
 12 13  2  0  0  0  0
 13 14  1  0  0  0  0
  5 14  1  6  0  0  0
  8 14  1  0  0  0  0
  6 15  1  0  0  0  0
  3 15  1  0  0  0  0
 15 16  1  1  0  0  0
M  END
>  <ID>
212

>  <PREFERRED_NAME>
ancitabine

>  <CAS_RN>
31698-14-3

>  <SYNONYMS>
ancitabine
ancytabine
cyclocytidine

>  <URL>
http://drugcentral.org/drugcard/212/view

$$$$
