angiotensinamide
  -INDIGO-06102311122D

 74 77  0  0  1  0  0  0  0  0999 V2000
   12.4884  -13.0733    0.0000 C   0  0  0  0  0  0  0  0  0  0  0  0
   11.6662  -13.0055    0.0000 C   0  0  0  0  0  0  0  0  0  0  0  0
   11.1963  -13.6836    0.0000 C   0  0  0  0  0  0  0  0  0  0  0  0
   11.3138  -12.2595    0.0000 C   0  0  2  0  0  0  0  0  0  0  0  0
   10.4916  -12.1917    0.0000 N   0  0  0  0  0  0  0  0  0  0  0  0
   10.0218  -12.8699    0.0000 C   0  0  0  0  0  0  0  0  0  0  0  0
   10.3741  -13.6158    0.0000 O   0  0  0  0  0  0  0  0  0  0  0  0
    9.1996  -12.8020    0.0000 C   0  0  2  0  0  0  0  0  0  0  0  0
    8.7297  -13.4802    0.0000 C   0  0  0  0  0  0  0  0  0  0  0  0
    7.9075  -13.4124    0.0000 C   0  0  0  0  0  0  0  0  0  0  0  0
    7.4377  -14.0905    0.0000 C   0  0  0  0  0  0  0  0  0  0  0  0
    6.6155  -14.0227    0.0000 N   0  0  0  0  0  0  0  0  0  0  0  0
    6.1456  -14.7009    0.0000 C   0  0  0  0  0  0  0  0  0  0  0  0
    5.3234  -14.6330    0.0000 N   0  0  0  0  0  0  0  0  0  0  0  0
    6.4980  -15.4468    0.0000 N   0  0  0  0  0  0  0  0  0  0  0  0
    8.8472  -12.0561    0.0000 N   0  0  0  0  0  0  0  0  0  0  0  0
    9.3170  -11.3779    0.0000 C   0  0  0  0  0  0  0  0  0  0  0  0
   10.1392  -11.4458    0.0000 O   0  0  0  0  0  0  0  0  0  0  0  0
    8.9646  -10.6320    0.0000 C   0  0  1  0  0  0  0  0  0  0  0  0
    8.1424  -10.5642    0.0000 N   0  0  0  0  0  0  0  0  0  0  0  0
    9.4345   -9.9538    0.0000 C   0  0  0  0  0  0  0  0  0  0  0  0
    9.0821   -9.2079    0.0000 C   0  0  0  0  0  0  0  0  0  0  0  0
    9.5519   -8.5297    0.0000 N   0  0  0  0  0  0  0  0  0  0  0  0
    8.2599   -9.1401    0.0000 O   0  0  0  0  0  0  0  0  0  0  0  0
   11.7836  -11.5814    0.0000 C   0  0  0  0  0  0  0  0  0  0  0  0
   11.4313  -10.8354    0.0000 O   0  0  0  0  0  0  0  0  0  0  0  0
   12.6058  -11.6492    0.0000 N   0  0  0  0  0  0  0  0  0  0  0  0
   13.0757  -10.9711    0.0000 C   0  0  1  0  0  0  0  0  0  0  0  0
   12.7233  -10.2251    0.0000 C   0  0  0  0  0  0  0  0  0  0  0  0
   13.1931   -9.5469    0.0000 C   0  0  0  0  0  0  0  0  0  0  0  0
   12.8408   -8.8010    0.0000 C   0  0  0  0  0  0  0  0  0  0  0  0
   13.3106   -8.1228    0.0000 C   0  0  0  0  0  0  0  0  0  0  0  0
   14.1328   -8.1907    0.0000 C   0  0  0  0  0  0  0  0  0  0  0  0
   14.6026   -7.5125    0.0000 O   0  0  0  0  0  0  0  0  0  0  0  0
   14.4852   -8.9366    0.0000 C   0  0  0  0  0  0  0  0  0  0  0  0
   14.0153   -9.6148    0.0000 C   0  0  0  0  0  0  0  0  0  0  0  0
   13.8979  -11.0389    0.0000 C   0  0  0  0  0  0  0  0  0  0  0  0
   14.2503  -11.7848    0.0000 O   0  0  0  0  0  0  0  0  0  0  0  0
   14.3677  -10.3607    0.0000 N   0  0  0  0  0  0  0  0  0  0  0  0
   15.1899  -10.4285    0.0000 C   0  0  1  0  0  0  0  0  0  0  0  0
   15.5423  -11.1745    0.0000 C   0  0  0  0  0  0  0  0  0  0  0  0
   16.3645  -11.2423    0.0000 C   0  0  0  0  0  0  0  0  0  0  0  0
   15.0725  -11.8526    0.0000 C   0  0  0  0  0  0  0  0  0  0  0  0
   15.6598   -9.7504    0.0000 C   0  0  0  0  0  0  0  0  0  0  0  0
   15.3074   -9.0044    0.0000 O   0  0  0  0  0  0  0  0  0  0  0  0
   16.4820   -9.8182    0.0000 N   0  0  0  0  0  0  0  0  0  0  0  0
   16.9518   -9.1401    0.0000 C   0  0  1  0  0  0  0  0  0  0  0  0
   16.3862   -8.5395    0.0000 C   0  0  0  0  0  0  0  0  0  0  0  0
   16.6234   -7.7494    0.0000 C   0  0  0  0  0  0  0  0  0  0  0  0
   16.1237   -7.0930    0.0000 C   0  0  0  0  0  0  0  0  0  0  0  0
   16.5935   -6.4148    0.0000 N   0  0  0  0  0  0  0  0  0  0  0  0
   17.3836   -6.6521    0.0000 C   0  0  0  0  0  0  0  0  0  0  0  0
   17.4021   -7.4769    0.0000 N   0  0  0  0  0  0  0  0  0  0  0  0
   17.7740   -9.2079    0.0000 C   0  0  0  0  0  0  0  0  0  0  0  0
   18.1264   -9.9538    0.0000 O   0  0  0  0  0  0  0  0  0  0  0  0
   18.2438   -8.5297    0.0000 N   0  0  0  0  0  0  0  0  0  0  0  0
   17.9714   -7.7510    0.0000 C   0  0  0  0  0  0  0  0  0  0  0  0
   18.6278   -7.2513    0.0000 C   0  0  0  0  0  0  0  0  0  0  0  0
   19.3059   -7.7211    0.0000 C   0  0  0  0  0  0  0  0  0  0  0  0
   19.0686   -8.5112    0.0000 C   0  0  1  0  0  0  0  0  0  0  0  0
   19.5684   -9.1676    0.0000 C   0  0  0  0  0  0  0  0  0  0  0  0
   19.2498   -9.9286    0.0000 O   0  0  0  0  0  0  0  0  0  0  0  0
   20.3867   -9.0630    0.0000 N   0  0  0  0  0  0  0  0  0  0  0  0
   20.8865   -9.7194    0.0000 C   0  0  1  0  0  0  0  0  0  0  0  0
   20.5679  -10.4804    0.0000 C   0  0  0  0  0  0  0  0  0  0  0  0
   21.0677  -11.1368    0.0000 C   0  0  0  0  0  0  0  0  0  0  0  0
   21.8861  -11.0322    0.0000 C   0  0  0  0  0  0  0  0  0  0  0  0
   22.3858  -11.6886    0.0000 C   0  0  0  0  0  0  0  0  0  0  0  0
   22.0672  -12.4496    0.0000 C   0  0  0  0  0  0  0  0  0  0  0  0
   21.2489  -12.5542    0.0000 C   0  0  0  0  0  0  0  0  0  0  0  0
   20.7491  -11.8978    0.0000 C   0  0  0  0  0  0  0  0  0  0  0  0
   21.7049   -9.6148    0.0000 C   0  0  0  0  0  0  0  0  0  0  0  0
   22.0234   -8.8538    0.0000 O   0  0  0  0  0  0  0  0  0  0  0  0
   22.2046  -10.2712    0.0000 O   0  0  0  0  0  0  0  0  0  0  0  0
  1  2  1  0  0  0  0
  2  3  1  0  0  0  0
  2  4  1  0  0  0  0
  4  5  1  6  0  0  0
  5  6  1  0  0  0  0
  6  7  2  0  0  0  0
  6  8  1  0  0  0  0
  8  9  1  0  0  0  0
  9 10  1  0  0  0  0
 10 11  1  0  0  0  0
 11 12  1  0  0  0  0
 12 13  1  0  0  0  0
 13 14  1  0  0  0  0
 13 15  2  0  0  0  0
  8 16  1  6  0  0  0
 16 17  1  0  0  0  0
 17 18  2  0  0  0  0
 17 19  1  0  0  0  0
 19 20  1  1  0  0  0
 19 21  1  0  0  0  0
 21 22  1  0  0  0  0
 22 23  1  0  0  0  0
 22 24  2  0  0  0  0
  4 25  1  0  0  0  0
 25 26  2  0  0  0  0
 25 27  1  0  0  0  0
 28 27  1  1  0  0  0
 28 29  1  0  0  0  0
 29 30  1  0  0  0  0
 30 31  4  0  0  0  0
 31 32  4  0  0  0  0
 32 33  4  0  0  0  0
 33 34  1  0  0  0  0
 33 35  4  0  0  0  0
 35 36  4  0  0  0  0
 30 36  4  0  0  0  0
 28 37  1  0  0  0  0
 37 38  2  0  0  0  0
 37 39  1  0  0  0  0
 40 39  1  6  0  0  0
 40 41  1  0  0  0  0
 41 42  1  0  0  0  0
 41 43  1  0  0  0  0
 40 44  1  0  0  0  0
 44 45  2  0  0  0  0
 44 46  1  0  0  0  0
 47 46  1  1  0  0  0
 47 48  1  0  0  0  0
 48 49  1  0  0  0  0
 49 50  4  0  0  0  0
 50 51  4  0  0  0  0
 51 52  4  0  0  0  0
 52 53  4  0  0  0  0
 49 53  4  0  0  0  0
 47 54  1  0  0  0  0
 54 55  2  0  0  0  0
 54 56  1  0  0  0  0
 56 57  1  0  0  0  0
 57 58  1  0  0  0  0
 58 59  1  0  0  0  0
 59 60  1  0  0  0  0
 56 60  1  0  0  0  0
 60 61  1  1  0  0  0
 61 62  2  0  0  0  0
 61 63  1  0  0  0  0
 64 63  1  6  0  0  0
 64 65  1  0  0  0  0
 65 66  1  0  0  0  0
 66 67  4  0  0  0  0
 67 68  4  0  0  0  0
 68 69  4  0  0  0  0
 69 70  4  0  0  0  0
 70 71  4  0  0  0  0
 66 71  4  0  0  0  0
 64 72  1  0  0  0  0
 72 73  1  0  0  0  0
 72 74  2  0  0  0  0
M  STY  1   1 DAT
M  SLB  1   1   1
M  SAL   1  1  51
M  SDT   1 MRV_IMPLICIT_H
M  SDD   1     0.0000    0.0000    DA    ALL  1       1
M  SED   1 IMPL_H1
M  END
>  <ID>
4338

>  <PREFERRED_NAME>
angiotensinamide

>  <CAS_RN>
38027-96-2

>  <SYNONYMS>
angiotensinamide

>  <URL>
http://drugcentral.org/drugcard/4338/view

$$$$
