apatinib
  -INDIGO-06102311192D

 30 33  0  0  0  0  0  0  0  0999 V2000
    5.9705    2.7269    0.0000 O   0  0  0  0  0  0  0  0  0  0  0  0
    5.1635    2.5554    0.0000 C   0  0  0  0  0  0  0  0  0  0  0  0
    4.9086    1.7708    0.0000 N   0  0  0  0  0  0  0  0  0  0  0  0
    5.4606    1.1577    0.0000 C   0  0  0  0  0  0  0  0  0  0  0  0
    6.2676    1.3292    0.0000 C   0  0  0  0  0  0  0  0  0  0  0  0
    6.8196    0.7161    0.0000 C   0  0  0  0  0  0  0  0  0  0  0  0
    6.5647   -0.0685    0.0000 C   0  0  0  0  0  0  0  0  0  0  0  0
    5.7577   -0.2401    0.0000 C   0  0  0  0  0  0  0  0  0  0  0  0
    5.2057    0.3730    0.0000 C   0  0  0  0  0  0  0  0  0  0  0  0
    7.1167   -0.6816    0.0000 C   0  0  0  0  0  0  0  0  0  0  0  0
    7.7841   -1.1665    0.0000 C   0  0  0  0  0  0  0  0  0  0  0  0
    7.5292   -1.9512    0.0000 C   0  0  0  0  0  0  0  0  0  0  0  0
    6.7042   -1.9512    0.0000 C   0  0  0  0  0  0  0  0  0  0  0  0
    6.4493   -1.1665    0.0000 C   0  0  0  0  0  0  0  0  0  0  0  0
    7.6687   -0.0685    0.0000 C   0  0  0  0  0  0  0  0  0  0  0  0
    8.2208    0.5446    0.0000 N   0  0  0  0  0  0  0  0  0  0  0  0
    4.6115    3.1685    0.0000 C   0  0  0  0  0  0  0  0  0  0  0  0
    3.8045    2.9969    0.0000 C   0  0  0  0  0  0  0  0  0  0  0  0
    3.2525    3.6100    0.0000 C   0  0  0  0  0  0  0  0  0  0  0  0
    3.5074    4.3947    0.0000 C   0  0  0  0  0  0  0  0  0  0  0  0
    4.3144    4.5662    0.0000 N   0  0  0  0  0  0  0  0  0  0  0  0
    4.8664    3.9531    0.0000 C   0  0  0  0  0  0  0  0  0  0  0  0
    5.6734    4.1246    0.0000 N   0  0  0  0  0  0  0  0  0  0  0  0
    5.9283    4.9092    0.0000 C   0  0  0  0  0  0  0  0  0  0  0  0
    6.7353    5.0808    0.0000 C   0  0  0  0  0  0  0  0  0  0  0  0
    6.9902    5.8654    0.0000 C   0  0  0  0  0  0  0  0  0  0  0  0
    7.7972    6.0369    0.0000 C   0  0  0  0  0  0  0  0  0  0  0  0
    8.3492    5.4238    0.0000 N   0  0  0  0  0  0  0  0  0  0  0  0
    8.0943    4.6392    0.0000 C   0  0  0  0  0  0  0  0  0  0  0  0
    7.2873    4.4677    0.0000 C   0  0  0  0  0  0  0  0  0  0  0  0
  1  2  2  0  0  0  0
  2  3  1  0  0  0  0
  3  4  1  0  0  0  0
  4  5  4  0  0  0  0
  5  6  4  0  0  0  0
  6  7  4  0  0  0  0
  7  8  4  0  0  0  0
  8  9  4  0  0  0  0
  4  9  4  0  0  0  0
  7 10  1  0  0  0  0
 10 11  1  0  0  0  0
 11 12  1  0  0  0  0
 12 13  1  0  0  0  0
 13 14  1  0  0  0  0
 10 14  1  0  0  0  0
 10 15  1  0  0  0  0
 15 16  3  0  0  0  0
  2 17  1  0  0  0  0
 17 18  4  0  0  0  0
 18 19  4  0  0  0  0
 19 20  4  0  0  0  0
 20 21  4  0  0  0  0
 21 22  4  0  0  0  0
 17 22  4  0  0  0  0
 22 23  1  0  0  0  0
 23 24  1  0  0  0  0
 24 25  1  0  0  0  0
 25 26  4  0  0  0  0
 26 27  4  0  0  0  0
 27 28  4  0  0  0  0
 28 29  4  0  0  0  0
 29 30  4  0  0  0  0
 25 30  4  0  0  0  0
M  END
>  <ID>
5211

>  <PREFERRED_NAME>
apatinib

>  <CAS_RN>
811803-05-1

>  <SYNONYMS>
apatinib
rivoceranib
apatinib mesylate
apatinib mesilate
YN968D1

>  <URL>
http://drugcentral.org/drugcard/5211/view

$$$$
