aprindine
  -INDIGO-06102310552D

 24 26  0  0  0  0  0  0  0  0999 V2000
   -2.1190   -4.8781    0.0000 C   0  0  0  0  0  0  0  0  0  0  0  0
   -1.4045   -5.2906    0.0000 C   0  0  0  0  0  0  0  0  0  0  0  0
   -0.6900   -4.8781    0.0000 N   0  0  0  0  0  0  0  0  0  0  0  0
   -0.6900   -4.0531    0.0000 C   0  0  0  0  0  0  0  0  0  0  0  0
    0.0244   -3.6406    0.0000 C   0  0  0  0  0  0  0  0  0  0  0  0
    0.0244   -5.2906    0.0000 C   0  0  0  0  0  0  0  0  0  0  0  0
    0.7389   -4.8781    0.0000 C   0  0  0  0  0  0  0  0  0  0  0  0
    1.4534   -5.2906    0.0000 C   0  0  0  0  0  0  0  0  0  0  0  0
    2.1678   -4.8781    0.0000 N   0  0  0  0  0  0  0  0  0  0  0  0
    2.8823   -5.2906    0.0000 C   0  0  0  0  0  0  0  0  0  0  0  0
    2.9686   -6.1110    0.0000 C   0  0  0  0  0  0  0  0  0  0  0  0
    3.7755   -6.2826    0.0000 C   0  0  0  0  0  0  0  0  0  0  0  0
    4.1880   -5.5681    0.0000 C   0  0  0  0  0  0  0  0  0  0  0  0
    3.6360   -4.9550    0.0000 C   0  0  0  0  0  0  0  0  0  0  0  0
    5.0130   -5.5681    0.0000 C   0  0  0  0  0  0  0  0  0  0  0  0
    5.4255   -6.2826    0.0000 C   0  0  0  0  0  0  0  0  0  0  0  0
    5.0130   -6.9970    0.0000 C   0  0  0  0  0  0  0  0  0  0  0  0
    4.1880   -6.9970    0.0000 C   0  0  0  0  0  0  0  0  0  0  0  0
    2.1678   -4.0531    0.0000 C   0  0  0  0  0  0  0  0  0  0  0  0
    1.4534   -3.6406    0.0000 C   0  0  0  0  0  0  0  0  0  0  0  0
    1.4534   -2.8156    0.0000 C   0  0  0  0  0  0  0  0  0  0  0  0
    2.1678   -2.4031    0.0000 C   0  0  0  0  0  0  0  0  0  0  0  0
    2.8823   -2.8156    0.0000 C   0  0  0  0  0  0  0  0  0  0  0  0
    2.8823   -3.6406    0.0000 C   0  0  0  0  0  0  0  0  0  0  0  0
  1  2  1  0  0  0  0
  2  3  1  0  0  0  0
  3  4  1  0  0  0  0
  4  5  1  0  0  0  0
  3  6  1  0  0  0  0
  6  7  1  0  0  0  0
  7  8  1  0  0  0  0
  8  9  1  0  0  0  0
  9 10  1  0  0  0  0
 10 11  1  0  0  0  0
 11 12  1  0  0  0  0
 12 13  4  0  0  0  0
 13 14  1  0  0  0  0
 10 14  1  0  0  0  0
 13 15  4  0  0  0  0
 15 16  4  0  0  0  0
 16 17  4  0  0  0  0
 17 18  4  0  0  0  0
 12 18  4  0  0  0  0
  9 19  1  0  0  0  0
 19 20  4  0  0  0  0
 20 21  4  0  0  0  0
 21 22  4  0  0  0  0
 22 23  4  0  0  0  0
 23 24  4  0  0  0  0
 19 24  4  0  0  0  0
M  END
>  <ID>
231

>  <PREFERRED_NAME>
aprindine

>  <CAS_RN>
37640-71-4

>  <SYNONYMS>
aprindine
aprindin
aprinidine
aprindine hydrochloride
aprindine HCl
amidonal
fiboran

>  <URL>
http://drugcentral.org/drugcard/231/view

$$$$
