aspoxicillin
  -INDIGO-06102310552D

 34 36  0  0  1  0  0  0  0  0999 V2000
    4.4637   -6.4092    0.0000 C   0  0  0  0  0  0  0  0  0  0  0  0
    5.1782   -5.9967    0.0000 N   0  0  0  0  0  0  0  0  0  0  0  0
    5.8926   -6.4092    0.0000 C   0  0  0  0  0  0  0  0  0  0  0  0
    5.8926   -7.2342    0.0000 O   0  0  0  0  0  0  0  0  0  0  0  0
    6.6071   -5.9967    0.0000 C   0  0  0  0  0  0  0  0  0  0  0  0
    7.3216   -6.4092    0.0000 C   0  0  1  0  0  0  0  0  0  0  0  0
    7.3216   -7.2342    0.0000 N   0  0  0  0  0  0  0  0  0  0  0  0
    8.0361   -5.9967    0.0000 C   0  0  0  0  0  0  0  0  0  0  0  0
    8.0361   -5.1717    0.0000 O   0  0  0  0  0  0  0  0  0  0  0  0
    8.7505   -6.4092    0.0000 N   0  0  0  0  0  0  0  0  0  0  0  0
    9.4650   -5.9967    0.0000 C   0  0  1  0  0  0  0  0  0  0  0  0
   10.1795   -6.4092    0.0000 C   0  0  0  0  0  0  0  0  0  0  0  0
   10.1795   -7.2342    0.0000 O   0  0  0  0  0  0  0  0  0  0  0  0
   10.8939   -5.9967    0.0000 N   0  0  0  0  0  0  0  0  0  0  0  0
   11.6084   -6.4092    0.0000 C   0  0  1  0  0  0  0  0  0  0  0  0
   12.4053   -6.1957    0.0000 C   0  0  1  0  0  0  0  0  0  0  0  0
   13.0972   -5.7463    0.0000 S   0  0  0  0  0  0  0  0  0  0  0  0
   13.7383   -6.2655    0.0000 C   0  0  0  0  0  0  0  0  0  0  0  0
   14.1877   -5.5736    0.0000 C   0  0  0  0  0  0  0  0  0  0  0  0
   14.4734   -6.6401    0.0000 C   0  0  0  0  0  0  0  0  0  0  0  0
   13.4427   -7.0357    0.0000 C   0  0  1  0  0  0  0  0  0  0  0  0
   12.6188   -6.9926    0.0000 N   0  0  0  0  0  0  0  0  0  0  0  0
   11.8219   -7.2061    0.0000 C   0  0  0  0  0  0  0  0  0  0  0  0
   11.4094   -7.9206    0.0000 O   0  0  0  0  0  0  0  0  0  0  0  0
   13.8920   -7.7276    0.0000 C   0  0  0  0  0  0  0  0  0  0  0  0
   14.7159   -7.6845    0.0000 O   0  0  0  0  0  0  0  0  0  0  0  0
   13.5175   -8.4627    0.0000 O   0  0  0  0  0  0  0  0  0  0  0  0
    9.4650   -5.1717    0.0000 C   0  0  0  0  0  0  0  0  0  0  0  0
    8.7505   -4.7592    0.0000 C   0  0  0  0  0  0  0  0  0  0  0  0
    8.7505   -3.9342    0.0000 C   0  0  0  0  0  0  0  0  0  0  0  0
    9.4650   -3.5217    0.0000 C   0  0  0  0  0  0  0  0  0  0  0  0
    9.4650   -2.6967    0.0000 O   0  0  0  0  0  0  0  0  0  0  0  0
   10.1795   -3.9342    0.0000 C   0  0  0  0  0  0  0  0  0  0  0  0
   10.1795   -4.7592    0.0000 C   0  0  0  0  0  0  0  0  0  0  0  0
  1  2  1  0  0  0  0
  2  3  1  0  0  0  0
  3  4  2  0  0  0  0
  3  5  1  0  0  0  0
  5  6  1  0  0  0  0
  6  7  1  6  0  0  0
  6  8  1  0  0  0  0
  8  9  2  0  0  0  0
  8 10  1  0  0  0  0
 11 10  1  6  0  0  0
 11 12  1  0  0  0  0
 12 13  2  0  0  0  0
 12 14  1  0  0  0  0
 15 14  1  1  0  0  0
 15 16  1  0  0  0  0
 16 17  1  0  0  0  0
 17 18  1  0  0  0  0
 18 19  1  0  0  0  0
 18 20  1  0  0  0  0
 18 21  1  0  0  0  0
 21 22  1  0  0  0  0
 16 22  1  1  0  0  0
 22 23  1  0  0  0  0
 15 23  1  0  0  0  0
 23 24  2  0  0  0  0
 21 25  1  6  0  0  0
 25 26  1  0  0  0  0
 25 27  2  0  0  0  0
 11 28  1  0  0  0  0
 28 29  4  0  0  0  0
 29 30  4  0  0  0  0
 30 31  4  0  0  0  0
 31 32  1  0  0  0  0
 31 33  4  0  0  0  0
 33 34  4  0  0  0  0
 28 34  4  0  0  0  0
M  END
>  <ID>
248

>  <PREFERRED_NAME>
aspoxicillin

>  <CAS_RN>
63358-49-6

>  <SYNONYMS>
aspoxicillin

>  <URL>
http://drugcentral.org/drugcard/248/view

$$$$
