asunaprevir
  -INDIGO-06102311172D

 51 55  0  0  1  0  0  0  0  0999 V2000
    0.7145    1.2375    0.0000 C   0  0  0  0  0  0  0  0  0  0  0  0
    1.4289    0.8250    0.0000 O   0  0  0  0  0  0  0  0  0  0  0  0
    1.4289    0.0000    0.0000 C   0  0  0  0  0  0  0  0  0  0  0  0
    2.1434   -0.4125    0.0000 C   0  0  0  0  0  0  0  0  0  0  0  0
    2.8579    0.0000    0.0000 C   0  0  0  0  0  0  0  0  0  0  0  0
    3.5724   -0.4125    0.0000 C   0  0  0  0  0  0  0  0  0  0  0  0
    3.5724   -1.2375    0.0000 C   0  0  0  0  0  0  0  0  0  0  0  0
    4.2868   -1.6500    0.0000 Cl  0  0  0  0  0  0  0  0  0  0  0  0
    2.8579   -1.6500    0.0000 C   0  0  0  0  0  0  0  0  0  0  0  0
    2.1434   -1.2375    0.0000 C   0  0  0  0  0  0  0  0  0  0  0  0
    1.4289   -1.6500    0.0000 C   0  0  0  0  0  0  0  0  0  0  0  0
    1.4289   -2.4750    0.0000 O   0  0  0  0  0  0  0  0  0  0  0  0
    0.7145   -2.8875    0.0000 C   0  0  2  0  0  0  0  0  0  0  0  0
    0.6282   -3.7080    0.0000 C   0  0  0  0  0  0  0  0  0  0  0  0
   -0.1787   -3.8795    0.0000 C   0  0  2  0  0  0  0  0  0  0  0  0
   -0.5912   -3.1650    0.0000 N   0  0  0  0  0  0  0  0  0  0  0  0
   -0.0392   -2.5519    0.0000 C   0  0  0  0  0  0  0  0  0  0  0  0
   -1.4117   -3.0788    0.0000 C   0  0  0  0  0  0  0  0  0  0  0  0
   -1.8966   -3.7462    0.0000 O   0  0  0  0  0  0  0  0  0  0  0  0
   -1.7473   -2.3251    0.0000 C   0  0  1  0  0  0  0  0  0  0  0  0
   -1.2624   -1.6577    0.0000 N   0  0  0  0  0  0  0  0  0  0  0  0
   -1.5979   -0.9040    0.0000 C   0  0  0  0  0  0  0  0  0  0  0  0
   -1.1130   -0.2366    0.0000 O   0  0  0  0  0  0  0  0  0  0  0  0
   -2.4184   -0.8178    0.0000 O   0  0  0  0  0  0  0  0  0  0  0  0
   -2.7539   -0.0641    0.0000 C   0  0  0  0  0  0  0  0  0  0  0  0
   -2.0003    0.2715    0.0000 C   0  0  0  0  0  0  0  0  0  0  0  0
   -3.5076   -0.3997    0.0000 C   0  0  0  0  0  0  0  0  0  0  0  0
   -3.0895    0.6896    0.0000 C   0  0  0  0  0  0  0  0  0  0  0  0
   -2.5678   -2.2389    0.0000 C   0  0  0  0  0  0  0  0  0  0  0  0
   -2.4815   -1.4184    0.0000 C   0  0  0  0  0  0  0  0  0  0  0  0
   -2.6540   -3.0594    0.0000 C   0  0  0  0  0  0  0  0  0  0  0  0
   -3.3882   -2.1527    0.0000 C   0  0  0  0  0  0  0  0  0  0  0  0
   -0.5143   -4.6332    0.0000 C   0  0  0  0  0  0  0  0  0  0  0  0
   -0.0294   -5.3006    0.0000 O   0  0  0  0  0  0  0  0  0  0  0  0
   -1.3348   -4.7194    0.0000 N   0  0  0  0  0  0  0  0  0  0  0  0
   -1.6703   -5.4731    0.0000 C   0  0  2  0  0  0  0  0  0  0  0  0
   -1.7279   -6.2961    0.0000 C   0  0  0  0  0  0  0  0  0  0  0  0
   -0.9864   -5.9344    0.0000 C   0  0  1  0  0  0  0  0  0  0  0  0
   -0.1634   -5.9920    0.0000 C   0  0  0  0  0  0  0  0  0  0  0  0
    0.1983   -6.7335    0.0000 C   0  0  0  0  0  0  0  0  0  0  0  0
   -2.4708   -5.2735    0.0000 C   0  0  0  0  0  0  0  0  0  0  0  0
   -3.0439   -5.8670    0.0000 O   0  0  0  0  0  0  0  0  0  0  0  0
   -2.6982   -4.4805    0.0000 N   0  0  0  0  0  0  0  0  0  0  0  0
   -3.4987   -4.2809    0.0000 S   0  0  0  0  0  0  0  0  0  0  0  0
   -3.2991   -3.4804    0.0000 O   0  0  0  0  0  0  0  0  0  0  0  0
   -3.6983   -5.0814    0.0000 O   0  0  0  0  0  0  0  0  0  0  0  0
   -4.2992   -4.0813    0.0000 C   0  0  0  0  0  0  0  0  0  0  0  0
   -5.0923   -4.3087    0.0000 C   0  0  0  0  0  0  0  0  0  0  0  0
   -4.8927   -3.5082    0.0000 C   0  0  0  0  0  0  0  0  0  0  0  0
    0.7145   -1.2375    0.0000 N   0  0  0  0  0  0  0  0  0  0  0  0
    0.7145   -0.4125    0.0000 C   0  0  0  0  0  0  0  0  0  0  0  0
  1  2  1  0  0  0  0
  2  3  1  0  0  0  0
  3  4  4  0  0  0  0
  4  5  4  0  0  0  0
  5  6  4  0  0  0  0
  6  7  4  0  0  0  0
  7  8  1  0  0  0  0
  7  9  4  0  0  0  0
  9 10  4  0  0  0  0
  4 10  4  0  0  0  0
 10 11  4  0  0  0  0
 11 12  1  0  0  0  0
 13 12  1  6  0  0  0
 13 14  1  0  0  0  0
 14 15  1  0  0  0  0
 15 16  1  0  0  0  0
 16 17  1  0  0  0  0
 13 17  1  0  0  0  0
 16 18  1  0  0  0  0
 18 19  2  0  0  0  0
 18 20  1  0  0  0  0
 20 21  1  6  0  0  0
 21 22  1  0  0  0  0
 22 23  2  0  0  0  0
 22 24  1  0  0  0  0
 24 25  1  0  0  0  0
 25 26  1  0  0  0  0
 25 27  1  0  0  0  0
 25 28  1  0  0  0  0
 20 29  1  0  0  0  0
 29 30  1  0  0  0  0
 29 31  1  0  0  0  0
 29 32  1  0  0  0  0
 15 33  1  1  0  0  0
 33 34  2  0  0  0  0
 33 35  1  0  0  0  0
 36 35  1  1  0  0  0
 36 37  1  0  0  0  0
 37 38  1  0  0  0  0
 36 38  1  0  0  0  0
 38 39  1  6  0  0  0
 39 40  2  0  0  0  0
 36 41  1  6  0  0  0
 41 42  2  0  0  0  0
 41 43  1  0  0  0  0
 43 44  1  0  0  0  0
 44 45  2  0  0  0  0
 44 46  2  0  0  0  0
 44 47  1  0  0  0  0
 47 48  1  0  0  0  0
 48 49  1  0  0  0  0
 47 49  1  0  0  0  0
 11 50  4  0  0  0  0
 50 51  4  0  0  0  0
  3 51  4  0  0  0  0
M  END
>  <ID>
4889

>  <PREFERRED_NAME>
asunaprevir

>  <CAS_RN>
630420-16-5

>  <SYNONYMS>
asunaprevir
BMS-650032
sunvepra

>  <URL>
http://drugcentral.org/drugcard/4889/view

$$$$
