atorvastatin
  -INDIGO-06102310552D

 41 44  0  0  1  0  0  0  0  0999 V2000
    0.5853   -4.4565    0.0000 C   0  0  0  0  0  0  0  0  0  0  0  0
   -0.0278   -3.9045    0.0000 C   0  0  0  0  0  0  0  0  0  0  0  0
   -0.8124   -4.1595    0.0000 C   0  0  0  0  0  0  0  0  0  0  0  0
    0.1437   -3.0975    0.0000 C   0  0  0  0  0  0  0  0  0  0  0  0
   -0.4083   -2.4844    0.0000 C   0  0  0  0  0  0  0  0  0  0  0  0
   -1.2288   -2.5707    0.0000 C   0  0  0  0  0  0  0  0  0  0  0  0
   -1.5643   -3.3244    0.0000 O   0  0  0  0  0  0  0  0  0  0  0  0
   -1.7137   -1.9032    0.0000 N   0  0  0  0  0  0  0  0  0  0  0  0
   -2.5342   -1.9895    0.0000 C   0  0  0  0  0  0  0  0  0  0  0  0
   -2.8697   -2.7432    0.0000 C   0  0  0  0  0  0  0  0  0  0  0  0
   -3.6902   -2.8294    0.0000 C   0  0  0  0  0  0  0  0  0  0  0  0
   -4.1751   -2.1620    0.0000 C   0  0  0  0  0  0  0  0  0  0  0  0
   -3.8396   -1.4083    0.0000 C   0  0  0  0  0  0  0  0  0  0  0  0
   -3.0191   -1.3220    0.0000 C   0  0  0  0  0  0  0  0  0  0  0  0
    0.0042   -1.7700    0.0000 C   0  0  0  0  0  0  0  0  0  0  0  0
    0.8112   -1.9415    0.0000 C   0  0  0  0  0  0  0  0  0  0  0  0
    0.8974   -2.7620    0.0000 N   0  0  0  0  0  0  0  0  0  0  0  0
    1.6119   -3.1745    0.0000 C   0  0  0  0  0  0  0  0  0  0  0  0
    2.3264   -2.7620    0.0000 C   0  0  0  0  0  0  0  0  0  0  0  0
    3.0408   -3.1745    0.0000 C   0  0  1  0  0  0  0  0  0  0  0  0
    3.0408   -3.9995    0.0000 O   0  0  0  0  0  0  0  0  0  0  0  0
    3.7553   -2.7620    0.0000 C   0  0  0  0  0  0  0  0  0  0  0  0
    4.4698   -3.1745    0.0000 C   0  0  1  0  0  0  0  0  0  0  0  0
    4.4698   -3.9995    0.0000 O   0  0  0  0  0  0  0  0  0  0  0  0
    5.1842   -2.7620    0.0000 C   0  0  0  0  0  0  0  0  0  0  0  0
    5.8987   -3.1745    0.0000 C   0  0  0  0  0  0  0  0  0  0  0  0
    6.6132   -2.7620    0.0000 O   0  0  0  0  0  0  0  0  0  0  0  0
    5.8987   -3.9995    0.0000 O   0  0  0  0  0  0  0  0  0  0  0  0
    1.4243   -1.3895    0.0000 C   0  0  0  0  0  0  0  0  0  0  0  0
    1.2528   -0.5825    0.0000 C   0  0  0  0  0  0  0  0  0  0  0  0
    1.8658   -0.0305    0.0000 C   0  0  0  0  0  0  0  0  0  0  0  0
    2.6505   -0.2854    0.0000 C   0  0  0  0  0  0  0  0  0  0  0  0
    3.2636    0.2666    0.0000 F   0  0  0  0  0  0  0  0  0  0  0  0
    2.8220   -1.0924    0.0000 C   0  0  0  0  0  0  0  0  0  0  0  0
    2.2089   -1.6444    0.0000 C   0  0  0  0  0  0  0  0  0  0  0  0
   -0.3313   -1.0163    0.0000 C   0  0  0  0  0  0  0  0  0  0  0  0
   -1.1518   -0.9301    0.0000 C   0  0  0  0  0  0  0  0  0  0  0  0
   -1.4874   -0.1764    0.0000 C   0  0  0  0  0  0  0  0  0  0  0  0
   -1.0025    0.4910    0.0000 C   0  0  0  0  0  0  0  0  0  0  0  0
   -0.1820    0.4048    0.0000 C   0  0  0  0  0  0  0  0  0  0  0  0
    0.1536   -0.3489    0.0000 C   0  0  0  0  0  0  0  0  0  0  0  0
  1  2  1  0  0  0  0
  2  3  1  0  0  0  0
  2  4  1  0  0  0  0
  4  5  4  0  0  0  0
  5  6  1  0  0  0  0
  6  7  2  0  0  0  0
  6  8  1  0  0  0  0
  8  9  1  0  0  0  0
  9 10  4  0  0  0  0
 10 11  4  0  0  0  0
 11 12  4  0  0  0  0
 12 13  4  0  0  0  0
 13 14  4  0  0  0  0
  9 14  4  0  0  0  0
  5 15  4  0  0  0  0
 15 16  4  0  0  0  0
 16 17  4  0  0  0  0
  4 17  4  0  0  0  0
 17 18  1  0  0  0  0
 18 19  1  0  0  0  0
 19 20  1  0  0  0  0
 20 21  1  6  0  0  0
 20 22  1  0  0  0  0
 22 23  1  0  0  0  0
 23 24  1  6  0  0  0
 23 25  1  0  0  0  0
 25 26  1  0  0  0  0
 26 27  1  0  0  0  0
 26 28  2  0  0  0  0
 16 29  1  0  0  0  0
 29 30  4  0  0  0  0
 30 31  4  0  0  0  0
 31 32  4  0  0  0  0
 32 33  1  0  0  0  0
 32 34  4  0  0  0  0
 34 35  4  0  0  0  0
 29 35  4  0  0  0  0
 15 36  1  0  0  0  0
 36 37  4  0  0  0  0
 37 38  4  0  0  0  0
 38 39  4  0  0  0  0
 39 40  4  0  0  0  0
 40 41  4  0  0  0  0
 36 41  4  0  0  0  0
M  END
>  <ID>
257

>  <PREFERRED_NAME>
atorvastatin

>  <CAS_RN>
134523-00-5

>  <SYNONYMS>
atorvastatin
CI-981
CI981
atorvastatin calcium hydrate
atorvastatin calcium anhydrous
atorvastatin acid
cardyl
atorvastatin calcium
atorvastatin calcium trihydrate

>  <URL>
http://drugcentral.org/drugcard/257/view

$$$$
