avanafil
  -INDIGO-06102311112D

 34 37  0  0  1  0  0  0  0  0999 V2000
    0.8212    2.0009    0.0000 C   0  0  0  0  0  0  0  0  0  0  0  0
    0.8212    1.1759    0.0000 O   0  0  0  0  0  0  0  0  0  0  0  0
    0.1067    0.7634    0.0000 C   0  0  0  0  0  0  0  0  0  0  0  0
    0.1067   -0.0616    0.0000 C   0  0  0  0  0  0  0  0  0  0  0  0
    0.8212   -0.4741    0.0000 Cl  0  0  0  0  0  0  0  0  0  0  0  0
   -0.6078   -0.4741    0.0000 C   0  0  0  0  0  0  0  0  0  0  0  0
   -1.3222   -0.0616    0.0000 C   0  0  0  0  0  0  0  0  0  0  0  0
   -2.0367   -0.4741    0.0000 C   0  0  0  0  0  0  0  0  0  0  0  0
   -2.7512   -0.0616    0.0000 N   0  0  0  0  0  0  0  0  0  0  0  0
   -3.4656   -0.4741    0.0000 C   0  0  0  0  0  0  0  0  0  0  0  0
   -3.4656   -1.2991    0.0000 N   0  0  0  0  0  0  0  0  0  0  0  0
   -4.1801   -1.7116    0.0000 C   0  0  0  0  0  0  0  0  0  0  0  0
   -4.8946   -1.2991    0.0000 N   0  0  0  0  0  0  0  0  0  0  0  0
   -4.8946   -0.4741    0.0000 C   0  0  0  0  0  0  0  0  0  0  0  0
   -4.1801   -0.0616    0.0000 C   0  0  0  0  0  0  0  0  0  0  0  0
   -4.1801    0.7634    0.0000 C   0  0  0  0  0  0  0  0  0  0  0  0
   -4.8946    1.1759    0.0000 O   0  0  0  0  0  0  0  0  0  0  0  0
   -3.4656    1.1759    0.0000 N   0  0  0  0  0  0  0  0  0  0  0  0
   -3.4656    2.0009    0.0000 C   0  0  0  0  0  0  0  0  0  0  0  0
   -4.1801    2.4134    0.0000 C   0  0  0  0  0  0  0  0  0  0  0  0
   -4.8946    2.0009    0.0000 N   0  0  0  0  0  0  0  0  0  0  0  0
   -5.6091    2.4134    0.0000 C   0  0  0  0  0  0  0  0  0  0  0  0
   -5.6091    3.2384    0.0000 C   0  0  0  0  0  0  0  0  0  0  0  0
   -4.8946    3.6509    0.0000 C   0  0  0  0  0  0  0  0  0  0  0  0
   -4.1801    3.2384    0.0000 N   0  0  0  0  0  0  0  0  0  0  0  0
   -4.1801   -2.5366    0.0000 N   0  0  0  0  0  0  0  0  0  0  0  0
   -3.5127   -3.0215    0.0000 C   0  0  0  0  0  0  0  0  0  0  0  0
   -3.7676   -3.8062    0.0000 C   0  0  0  0  0  0  0  0  0  0  0  0
   -4.5926   -3.8062    0.0000 C   0  0  0  0  0  0  0  0  0  0  0  0
   -4.8476   -3.0215    0.0000 C   0  0  1  0  0  0  0  0  0  0  0  0
   -5.6322   -2.7666    0.0000 C   0  0  0  0  0  0  0  0  0  0  0  0
   -5.8037   -1.9596    0.0000 O   0  0  0  0  0  0  0  0  0  0  0  0
   -1.3222    0.7634    0.0000 C   0  0  0  0  0  0  0  0  0  0  0  0
   -0.6078    1.1759    0.0000 C   0  0  0  0  0  0  0  0  0  0  0  0
  1  2  1  0  0  0  0
  2  3  1  0  0  0  0
  3  4  4  0  0  0  0
  4  5  1  0  0  0  0
  4  6  4  0  0  0  0
  6  7  4  0  0  0  0
  7  8  1  0  0  0  0
  8  9  1  0  0  0  0
  9 10  1  0  0  0  0
 10 11  4  0  0  0  0
 11 12  4  0  0  0  0
 12 13  4  0  0  0  0
 13 14  4  0  0  0  0
 14 15  4  0  0  0  0
 10 15  4  0  0  0  0
 15 16  1  0  0  0  0
 16 17  2  0  0  0  0
 16 18  1  0  0  0  0
 18 19  1  0  0  0  0
 19 20  1  0  0  0  0
 20 21  4  0  0  0  0
 21 22  4  0  0  0  0
 22 23  4  0  0  0  0
 23 24  4  0  0  0  0
 24 25  4  0  0  0  0
 20 25  4  0  0  0  0
 12 26  1  0  0  0  0
 26 27  1  0  0  0  0
 27 28  1  0  0  0  0
 28 29  1  0  0  0  0
 29 30  1  0  0  0  0
 26 30  1  0  0  0  0
 30 31  1  1  0  0  0
 31 32  1  0  0  0  0
  7 33  4  0  0  0  0
 33 34  4  0  0  0  0
  3 34  4  0  0  0  0
M  END
>  <ID>
4305

>  <PREFERRED_NAME>
avanafil

>  <CAS_RN>
330784-47-9

>  <SYNONYMS>
avanafil
spedra
TA 1790
stendra

>  <URL>
http://drugcentral.org/drugcard/4305/view

$$$$
