avapritinib
  -INDIGO-06102311212D

 37 42  0  0  1  0  0  0  0  0999 V2000
   -2.1082    0.1995    0.0000 C   0  0  0  0  0  0  0  0  0  0  0  0
   -1.4407   -0.2854    0.0000 N   0  0  0  0  0  0  0  0  0  0  0  0
   -0.6561   -0.0305    0.0000 C   0  0  0  0  0  0  0  0  0  0  0  0
   -0.1712   -0.6979    0.0000 C   0  0  0  0  0  0  0  0  0  0  0  0
   -0.6561   -1.3654    0.0000 C   0  0  0  0  0  0  0  0  0  0  0  0
   -1.4407   -1.1104    0.0000 N   0  0  0  0  0  0  0  0  0  0  0  0
    0.6538   -0.6979    0.0000 C   0  0  0  0  0  0  0  0  0  0  0  0
    1.1387   -0.0305    0.0000 C   0  0  0  0  0  0  0  0  0  0  0  0
    1.9233   -0.2854    0.0000 N   0  0  0  0  0  0  0  0  0  0  0  0
    2.6378    0.1271    0.0000 N   0  0  0  0  0  0  0  0  0  0  0  0
    3.3523   -0.2854    0.0000 C   0  0  0  0  0  0  0  0  0  0  0  0
    3.3523   -1.1104    0.0000 N   0  0  0  0  0  0  0  0  0  0  0  0
    2.6378   -1.5229    0.0000 C   0  0  0  0  0  0  0  0  0  0  0  0
    2.6378   -2.3479    0.0000 N   0  0  0  0  0  0  0  0  0  0  0  0
    3.3523   -2.7604    0.0000 C   0  0  0  0  0  0  0  0  0  0  0  0
    3.3523   -3.5854    0.0000 C   0  0  0  0  0  0  0  0  0  0  0  0
    2.6378   -3.9979    0.0000 N   0  0  0  0  0  0  0  0  0  0  0  0
    1.9233   -3.5854    0.0000 C   0  0  0  0  0  0  0  0  0  0  0  0
    1.9233   -2.7604    0.0000 C   0  0  0  0  0  0  0  0  0  0  0  0
    2.6378   -4.8229    0.0000 C   0  0  0  0  0  0  0  0  0  0  0  0
    3.3523   -5.2354    0.0000 N   0  0  0  0  0  0  0  0  0  0  0  0
    3.3523   -6.0604    0.0000 C   0  0  0  0  0  0  0  0  0  0  0  0
    2.6378   -6.4729    0.0000 C   0  0  0  0  0  0  0  0  0  0  0  0
    1.9233   -6.0604    0.0000 C   0  0  0  0  0  0  0  0  0  0  0  0
    1.9233   -5.2354    0.0000 N   0  0  0  0  0  0  0  0  0  0  0  0
    2.6378   -7.2979    0.0000 C   0  0  1  0  0  0  0  0  0  0  0  0
    1.8128   -7.2979    0.0000 C   0  0  0  0  0  0  0  0  0  0  0  0
    3.4628   -7.2979    0.0000 N   0  0  0  0  0  0  0  0  0  0  0  0
    2.6378   -8.1229    0.0000 C   0  0  0  0  0  0  0  0  0  0  0  0
    3.3523   -8.5354    0.0000 C   0  0  0  0  0  0  0  0  0  0  0  0
    3.3523   -9.3604    0.0000 C   0  0  0  0  0  0  0  0  0  0  0  0
    2.6378   -9.7729    0.0000 C   0  0  0  0  0  0  0  0  0  0  0  0
    2.6378  -10.5979    0.0000 F   0  0  0  0  0  0  0  0  0  0  0  0
    1.9233   -9.3604    0.0000 C   0  0  0  0  0  0  0  0  0  0  0  0
    1.9233   -8.5354    0.0000 C   0  0  0  0  0  0  0  0  0  0  0  0
    1.9233   -1.1104    0.0000 C   0  0  0  0  0  0  0  0  0  0  0  0
    1.1387   -1.3654    0.0000 C   0  0  0  0  0  0  0  0  0  0  0  0
  1  2  1  0  0  0  0
  2  3  4  0  0  0  0
  3  4  4  0  0  0  0
  4  5  4  0  0  0  0
  5  6  4  0  0  0  0
  2  6  4  0  0  0  0
  4  7  1  0  0  0  0
  7  8  4  0  0  0  0
  8  9  4  0  0  0  0
  9 10  4  0  0  0  0
 10 11  4  0  0  0  0
 11 12  4  0  0  0  0
 12 13  4  0  0  0  0
 13 14  1  0  0  0  0
 14 15  1  0  0  0  0
 15 16  1  0  0  0  0
 16 17  1  0  0  0  0
 17 18  1  0  0  0  0
 18 19  1  0  0  0  0
 14 19  1  0  0  0  0
 17 20  1  0  0  0  0
 20 21  4  0  0  0  0
 21 22  4  0  0  0  0
 22 23  4  0  0  0  0
 23 24  4  0  0  0  0
 24 25  4  0  0  0  0
 20 25  4  0  0  0  0
 23 26  1  0  0  0  0
 26 27  1  6  0  0  0
 26 28  1  6  0  0  0
 26 29  1  0  0  0  0
 29 30  4  0  0  0  0
 30 31  4  0  0  0  0
 31 32  4  0  0  0  0
 32 33  1  0  0  0  0
 32 34  4  0  0  0  0
 34 35  4  0  0  0  0
 29 35  4  0  0  0  0
 13 36  4  0  0  0  0
  9 36  4  0  0  0  0
 36 37  4  0  0  0  0
  7 37  4  0  0  0  0
M  END
>  <ID>
5379

>  <PREFERRED_NAME>
avapritinib

>  <CAS_RN>
1703793-34-3

>  <SYNONYMS>
avapritinib
BLU-285
ayvakit

>  <URL>
http://drugcentral.org/drugcard/5379/view

$$$$
