azlocillin
  -INDIGO-06102310552D

 32 35  0  0  1  0  0  0  0  0999 V2000
   -4.2838    2.4072    0.0000 C   0  0  0  0  0  0  0  0  0  0  0  0
   -3.8344    1.7153    0.0000 C   0  0  0  0  0  0  0  0  0  0  0  0
   -4.5695    1.3408    0.0000 C   0  0  0  0  0  0  0  0  0  0  0  0
   -3.1933    2.2345    0.0000 S   0  0  0  0  0  0  0  0  0  0  0  0
   -2.5014    1.7852    0.0000 C   0  0  2  0  0  0  0  0  0  0  0  0
   -1.7045    1.5717    0.0000 C   0  0  2  0  0  0  0  0  0  0  0  0
   -0.9900    1.9842    0.0000 N   0  0  0  0  0  0  0  0  0  0  0  0
   -0.2755    1.5717    0.0000 C   0  0  0  0  0  0  0  0  0  0  0  0
   -0.2755    0.7467    0.0000 O   0  0  0  0  0  0  0  0  0  0  0  0
    0.4389    1.9842    0.0000 C   0  0  2  0  0  0  0  0  0  0  0  0
    1.1534    1.5717    0.0000 N   0  0  0  0  0  0  0  0  0  0  0  0
    1.8679    1.9842    0.0000 C   0  0  0  0  0  0  0  0  0  0  0  0
    1.8679    2.8092    0.0000 O   0  0  0  0  0  0  0  0  0  0  0  0
    2.5823    1.5717    0.0000 N   0  0  0  0  0  0  0  0  0  0  0  0
    3.3360    1.9072    0.0000 C   0  0  0  0  0  0  0  0  0  0  0  0
    3.8880    1.2941    0.0000 C   0  0  0  0  0  0  0  0  0  0  0  0
    3.4755    0.5797    0.0000 N   0  0  0  0  0  0  0  0  0  0  0  0
    2.6686    0.7512    0.0000 C   0  0  0  0  0  0  0  0  0  0  0  0
    2.0555    0.1992    0.0000 O   0  0  0  0  0  0  0  0  0  0  0  0
    0.4389    2.8092    0.0000 C   0  0  0  0  0  0  0  0  0  0  0  0
   -0.2755    3.2217    0.0000 C   0  0  0  0  0  0  0  0  0  0  0  0
   -0.2755    4.0467    0.0000 C   0  0  0  0  0  0  0  0  0  0  0  0
    0.4389    4.4592    0.0000 C   0  0  0  0  0  0  0  0  0  0  0  0
    1.1534    4.0467    0.0000 C   0  0  0  0  0  0  0  0  0  0  0  0
    1.1534    3.2217    0.0000 C   0  0  0  0  0  0  0  0  0  0  0  0
   -1.9180    0.7748    0.0000 C   0  0  0  0  0  0  0  0  0  0  0  0
   -1.5055    0.0603    0.0000 O   0  0  0  0  0  0  0  0  0  0  0  0
   -2.7149    0.9883    0.0000 N   0  0  0  0  0  0  0  0  0  0  0  0
   -3.5388    0.9451    0.0000 C   0  0  1  0  0  0  0  0  0  0  0  0
   -3.9881    0.2532    0.0000 C   0  0  0  0  0  0  0  0  0  0  0  0
   -3.6136   -0.4819    0.0000 O   0  0  0  0  0  0  0  0  0  0  0  0
   -4.8120    0.2964    0.0000 O   0  0  0  0  0  0  0  0  0  0  0  0
  1  2  1  0  0  0  0
  2  3  1  0  0  0  0
  2  4  1  0  0  0  0
  4  5  1  0  0  0  0
  5  6  1  0  0  0  0
  6  7  1  6  0  0  0
  7  8  1  0  0  0  0
  8  9  2  0  0  0  0
  8 10  1  0  0  0  0
 10 11  1  1  0  0  0
 11 12  1  0  0  0  0
 12 13  2  0  0  0  0
 12 14  1  0  0  0  0
 14 15  1  0  0  0  0
 15 16  1  0  0  0  0
 16 17  1  0  0  0  0
 17 18  1  0  0  0  0
 14 18  1  0  0  0  0
 18 19  2  0  0  0  0
 10 20  1  0  0  0  0
 20 21  4  0  0  0  0
 21 22  4  0  0  0  0
 22 23  4  0  0  0  0
 23 24  4  0  0  0  0
 24 25  4  0  0  0  0
 20 25  4  0  0  0  0
  6 26  1  0  0  0  0
 26 27  2  0  0  0  0
 26 28  1  0  0  0  0
  5 28  1  6  0  0  0
 28 29  1  0  0  0  0
  2 29  1  0  0  0  0
 29 30  1  1  0  0  0
 30 31  1  0  0  0  0
 30 32  2  0  0  0  0
M  END
>  <ID>
277

>  <PREFERRED_NAME>
azlocillin

>  <CAS_RN>
37091-66-0

>  <SYNONYMS>
azlocillin
azlocillin sodium
azlocillin sodium salt

>  <URL>
http://drugcentral.org/drugcard/277/view

$$$$
