azosemide
  -INDIGO-06102310552D

 23 25  0  0  0  0  0  0  0  0999 V2000
    0.8212    5.1777    0.0000 N   0  0  0  0  0  0  0  0  0  0  0  0
    0.1067    4.7652    0.0000 S   0  0  0  0  0  0  0  0  0  0  0  0
   -0.3058    5.4797    0.0000 O   0  0  0  0  0  0  0  0  0  0  0  0
    0.5192    4.0507    0.0000 O   0  0  0  0  0  0  0  0  0  0  0  0
   -0.6078    4.3527    0.0000 C   0  0  0  0  0  0  0  0  0  0  0  0
   -0.6078    3.5277    0.0000 C   0  0  0  0  0  0  0  0  0  0  0  0
   -1.3222    3.1152    0.0000 C   0  0  0  0  0  0  0  0  0  0  0  0
   -1.3222    2.2902    0.0000 C   0  0  0  0  0  0  0  0  0  0  0  0
   -0.6548    1.8053    0.0000 N   0  0  0  0  0  0  0  0  0  0  0  0
   -0.9097    1.0206    0.0000 N   0  0  0  0  0  0  0  0  0  0  0  0
   -1.7347    1.0206    0.0000 N   0  0  0  0  0  0  0  0  0  0  0  0
   -1.9897    1.8053    0.0000 N   0  0  0  0  0  0  0  0  0  0  0  0
   -2.0367    3.5277    0.0000 C   0  0  0  0  0  0  0  0  0  0  0  0
   -2.7512    3.1152    0.0000 N   0  0  0  0  0  0  0  0  0  0  0  0
   -2.7512    2.2902    0.0000 C   0  0  0  0  0  0  0  0  0  0  0  0
   -3.4656    1.8777    0.0000 C   0  0  0  0  0  0  0  0  0  0  0  0
   -3.5519    1.0572    0.0000 C   0  0  0  0  0  0  0  0  0  0  0  0
   -4.3589    0.8857    0.0000 C   0  0  0  0  0  0  0  0  0  0  0  0
   -4.7714    1.6001    0.0000 C   0  0  0  0  0  0  0  0  0  0  0  0
   -4.2193    2.2132    0.0000 S   0  0  0  0  0  0  0  0  0  0  0  0
   -2.0367    4.3527    0.0000 C   0  0  0  0  0  0  0  0  0  0  0  0
   -1.3222    4.7652    0.0000 C   0  0  0  0  0  0  0  0  0  0  0  0
   -1.3222    5.5902    0.0000 Cl  0  0  0  0  0  0  0  0  0  0  0  0
  1  2  1  0  0  0  0
  2  3  2  0  0  0  0
  2  4  2  0  0  0  0
  2  5  1  0  0  0  0
  5  6  4  0  0  0  0
  6  7  4  0  0  0  0
  7  8  1  0  0  0  0
  8  9  4  0  0  0  0
  9 10  4  0  0  0  0
 10 11  4  0  0  0  0
 11 12  4  0  0  0  0
  8 12  4  0  0  0  0
  7 13  4  0  0  0  0
 13 14  1  0  0  0  0
 14 15  1  0  0  0  0
 15 16  1  0  0  0  0
 16 17  4  0  0  0  0
 17 18  4  0  0  0  0
 18 19  4  0  0  0  0
 19 20  4  0  0  0  0
 16 20  4  0  0  0  0
 13 21  4  0  0  0  0
 21 22  4  0  0  0  0
  5 22  4  0  0  0  0
 22 23  1  0  0  0  0
M  STY  1   1 DAT
M  SLB  1   1   1
M  SAL   1  1  12
M  SDT   1 MRV_IMPLICIT_H
M  SDD   1     0.0000    0.0000    DA    ALL  1       1
M  SED   1 IMPL_H1
M  END
>  <ID>
278

>  <PREFERRED_NAME>
azosemide

>  <CAS_RN>
27589-33-9

>  <SYNONYMS>
azosemide
diurapid
azosemid

>  <URL>
http://drugcentral.org/drugcard/278/view

$$$$
