bacampicillin
  -INDIGO-06102310552D

 32 34  0  0  1  0  0  0  0  0999 V2000
    3.5108   -4.3205    0.0000 C   0  0  0  0  0  0  0  0  0  0  0  0
    4.2253   -3.9080    0.0000 C   0  0  0  0  0  0  0  0  0  0  0  0
    4.9398   -4.3205    0.0000 O   0  0  0  0  0  0  0  0  0  0  0  0
    5.6542   -3.9080    0.0000 C   0  0  0  0  0  0  0  0  0  0  0  0
    5.6542   -3.0830    0.0000 O   0  0  0  0  0  0  0  0  0  0  0  0
    6.3687   -4.3205    0.0000 O   0  0  0  0  0  0  0  0  0  0  0  0
    7.0832   -3.9080    0.0000 C   0  0  0  0  0  0  0  0  0  0  0  0
    7.0832   -3.0830    0.0000 C   0  0  0  0  0  0  0  0  0  0  0  0
    7.7976   -4.3205    0.0000 O   0  0  0  0  0  0  0  0  0  0  0  0
    8.5121   -3.9080    0.0000 C   0  0  0  0  0  0  0  0  0  0  0  0
    8.5121   -3.0830    0.0000 O   0  0  0  0  0  0  0  0  0  0  0  0
    9.2266   -4.3205    0.0000 C   0  0  2  0  0  0  0  0  0  0  0  0
    9.9803   -3.9849    0.0000 N   0  0  0  0  0  0  0  0  0  0  0  0
   10.5323   -4.5980    0.0000 C   0  0  2  0  0  0  0  0  0  0  0  0
   10.1198   -5.3125    0.0000 S   0  0  0  0  0  0  0  0  0  0  0  0
    9.3128   -5.1410    0.0000 C   0  0  0  0  0  0  0  0  0  0  0  0
    9.0497   -5.9229    0.0000 C   0  0  0  0  0  0  0  0  0  0  0  0
    8.5077   -5.3210    0.0000 C   0  0  0  0  0  0  0  0  0  0  0  0
   11.1454   -4.0460    0.0000 C   0  0  2  0  0  0  0  0  0  0  0  0
   11.9693   -4.0892    0.0000 N   0  0  0  0  0  0  0  0  0  0  0  0
   12.3438   -4.8243    0.0000 C   0  0  0  0  0  0  0  0  0  0  0  0
   11.8945   -5.5162    0.0000 O   0  0  0  0  0  0  0  0  0  0  0  0
   13.1677   -4.8674    0.0000 C   0  0  2  0  0  0  0  0  0  0  0  0
   13.6170   -4.1755    0.0000 N   0  0  0  0  0  0  0  0  0  0  0  0
   13.5422   -5.6025    0.0000 C   0  0  0  0  0  0  0  0  0  0  0  0
   14.3661   -5.6457    0.0000 C   0  0  0  0  0  0  0  0  0  0  0  0
   14.7406   -6.3808    0.0000 C   0  0  0  0  0  0  0  0  0  0  0  0
   14.2913   -7.0727    0.0000 C   0  0  0  0  0  0  0  0  0  0  0  0
   13.4674   -7.0295    0.0000 C   0  0  0  0  0  0  0  0  0  0  0  0
   13.0929   -6.2944    0.0000 C   0  0  0  0  0  0  0  0  0  0  0  0
   10.5934   -3.4329    0.0000 C   0  0  0  0  0  0  0  0  0  0  0  0
   10.6365   -2.6090    0.0000 O   0  0  0  0  0  0  0  0  0  0  0  0
  1  2  1  0  0  0  0
  2  3  1  0  0  0  0
  3  4  1  0  0  0  0
  4  5  2  0  0  0  0
  4  6  1  0  0  0  0
  6  7  1  0  0  0  0
  7  8  1  0  0  0  0
  7  9  1  0  0  0  0
  9 10  1  0  0  0  0
 10 11  2  0  0  0  0
 12 10  1  6  0  0  0
 12 13  1  0  0  0  0
 14 13  1  1  0  0  0
 14 15  1  0  0  0  0
 15 16  1  0  0  0  0
 12 16  1  0  0  0  0
 16 17  1  0  0  0  0
 16 18  1  0  0  0  0
 14 19  1  0  0  0  0
 19 20  1  1  0  0  0
 20 21  1  0  0  0  0
 21 22  2  0  0  0  0
 21 23  1  0  0  0  0
 23 24  1  6  0  0  0
 23 25  1  0  0  0  0
 25 26  4  0  0  0  0
 26 27  4  0  0  0  0
 27 28  4  0  0  0  0
 28 29  4  0  0  0  0
 29 30  4  0  0  0  0
 25 30  4  0  0  0  0
 19 31  1  0  0  0  0
 13 31  1  0  0  0  0
 31 32  2  0  0  0  0
M  END
>  <ID>
280

>  <PREFERRED_NAME>
bacampicillin

>  <CAS_RN>
50972-17-3

>  <SYNONYMS>
bacampicillin
bacampicillin hydrochloride
carampicillin
bacampicillin HCl

>  <URL>
http://drugcentral.org/drugcard/280/view

$$$$
