bagrosin
  -INDIGO-06102311102D

 22 25  0  0  0  0  0  0  0  0999 V2000
    0.6431   -0.2980    0.0000 C   0  0  0  0  0  0  0  0  0  0  0  0
   -0.1105   -0.6336    0.0000 C   0  0  0  0  0  0  0  0  0  0  0  0
   -0.7780   -1.1185    0.0000 N   0  0  0  0  0  0  0  0  0  0  0  0
   -1.4454   -0.6336    0.0000 C   0  0  0  0  0  0  0  0  0  0  0  0
   -2.2300   -0.8885    0.0000 O   0  0  0  0  0  0  0  0  0  0  0  0
   -1.1905    0.1511    0.0000 N   0  0  0  0  0  0  0  0  0  0  0  0
   -0.3655    0.1511    0.0000 C   0  0  0  0  0  0  0  0  0  0  0  0
    0.1195    0.8185    0.0000 O   0  0  0  0  0  0  0  0  0  0  0  0
    0.3020   -1.3480    0.0000 C   0  0  0  0  0  0  0  0  0  0  0  0
    1.1270   -1.3480    0.0000 C   0  0  0  0  0  0  0  0  0  0  0  0
    1.5395   -2.0625    0.0000 C   0  0  0  0  0  0  0  0  0  0  0  0
    2.3645   -2.0625    0.0000 C   0  0  0  0  0  0  0  0  0  0  0  0
    2.7770   -1.3480    0.0000 C   0  0  0  0  0  0  0  0  0  0  0  0
    3.6020   -1.3480    0.0000 C   0  0  0  0  0  0  0  0  0  0  0  0
    4.0145   -2.0625    0.0000 C   0  0  0  0  0  0  0  0  0  0  0  0
    3.6020   -2.7770    0.0000 C   0  0  0  0  0  0  0  0  0  0  0  0
    2.7770   -2.7770    0.0000 C   0  0  0  0  0  0  0  0  0  0  0  0
    2.3645   -3.4914    0.0000 C   0  0  0  0  0  0  0  0  0  0  0  0
    1.5395   -3.4914    0.0000 C   0  0  0  0  0  0  0  0  0  0  0  0
    1.1270   -2.7770    0.0000 C   0  0  0  0  0  0  0  0  0  0  0  0
    0.3020   -2.7770    0.0000 C   0  0  0  0  0  0  0  0  0  0  0  0
   -0.1105   -2.0625    0.0000 C   0  0  0  0  0  0  0  0  0  0  0  0
  1  2  1  0  0  0  0
  2  3  1  0  0  0  0
  3  4  1  0  0  0  0
  4  5  2  0  0  0  0
  4  6  1  0  0  0  0
  6  7  1  0  0  0  0
  2  7  1  0  0  0  0
  7  8  2  0  0  0  0
  2  9  1  0  0  0  0
  9 10  4  0  0  0  0
 10 11  4  0  0  0  0
 11 12  4  0  0  0  0
 12 13  4  0  0  0  0
 13 14  4  0  0  0  0
 14 15  4  0  0  0  0
 15 16  4  0  0  0  0
 16 17  4  0  0  0  0
 12 17  4  0  0  0  0
 17 18  4  0  0  0  0
 18 19  4  0  0  0  0
 19 20  4  0  0  0  0
 11 20  4  0  0  0  0
 20 21  4  0  0  0  0
 21 22  4  0  0  0  0
  9 22  4  0  0  0  0
M  END
>  <ID>
3778

>  <PREFERRED_NAME>
bagrosin

>  <CAS_RN>
3784-92-7

>  <SYNONYMS>
bagrosin
bagrosin sodium

>  <URL>
http://drugcentral.org/drugcard/3778/view

$$$$
