bambermycin
  -INDIGO-06102311232D

110115  0  0  1  0  0  0  0  0999 V2000
    0.1067    5.5902    0.0000 C   0  0  0  0  0  0  0  0  0  0  0  0
    0.8212    6.0027    0.0000 C   0  0  1  0  0  0  0  0  0  0  0  0
    1.5356    5.5902    0.0000 O   0  0  0  0  0  0  0  0  0  0  0  0
    2.2501    6.0027    0.0000 C   0  0  1  0  0  0  0  0  0  0  0  0
    2.9646    5.5902    0.0000 O   0  0  0  0  0  0  0  0  0  0  0  0
    2.9646    4.7652    0.0000 C   0  0  1  0  0  0  0  0  0  0  0  0
    2.2501    4.3527    0.0000 C   0  0  2  0  0  0  0  0  0  0  0  0
    1.5356    4.7652    0.0000 O   0  0  0  0  0  0  0  0  0  0  0  0
    2.2501    3.5277    0.0000 C   0  0  1  0  0  0  0  0  0  0  0  0
    1.5356    3.1152    0.0000 N   0  0  0  0  0  0  0  0  0  0  0  0
    1.5356    2.2902    0.0000 C   0  0  0  0  0  0  0  0  0  0  0  0
    0.8212    1.8777    0.0000 O   0  0  0  0  0  0  0  0  0  0  0  0
    2.2501    1.8777    0.0000 C   0  0  0  0  0  0  0  0  0  0  0  0
    2.9646    3.1152    0.0000 C   0  0  2  0  0  0  0  0  0  0  0  0
    2.9646    2.2902    0.0000 O   0  0  0  0  0  0  0  0  0  0  0  0
    3.6791    1.8777    0.0000 C   0  0  1  0  0  0  0  0  0  0  0  0
    3.6791    1.0527    0.0000 C   0  0  1  0  0  0  0  0  0  0  0  0
    2.9646    0.6402    0.0000 O   0  0  0  0  0  0  0  0  0  0  0  0
    2.9646   -0.1848    0.0000 P   0  0  0  0  0  0  0  0  0  0  0  0
    2.1396   -0.1848    0.0000 O   0  0  0  0  0  0  0  0  0  0  0  0
    3.7896   -0.1848    0.0000 O   0  0  0  0  0  0  0  0  0  0  0  0
    2.9646   -1.0098    0.0000 O   0  0  0  0  0  0  0  0  0  0  0  0
    2.2501   -1.4223    0.0000 C   0  0  0  0  0  0  0  0  0  0  0  0
    2.2501   -2.2473    0.0000 C   0  0  1  0  0  0  0  0  0  0  0  0
    2.9646   -2.6598    0.0000 O   0  0  0  0  0  0  0  0  0  0  0  0
    1.5356   -2.6598    0.0000 C   0  0  0  0  0  0  0  0  0  0  0  0
    0.8212   -2.2473    0.0000 O   0  0  0  0  0  0  0  0  0  0  0  0
    1.5356   -3.4848    0.0000 O   0  0  0  0  0  0  0  0  0  0  0  0
    0.8212   -3.8973    0.0000 C   0  0  0  0  0  0  0  0  0  0  0  0
    0.8212   -4.7223    0.0000 C   0  0  0  0  0  0  0  0  0  0  0  0
    0.1067   -5.1348    0.0000 C   0  0  0  0  0  0  0  0  0  0  0  0
    0.1067   -5.9598    0.0000 C   0  0  0  0  0  0  0  0  0  0  0  0
    0.8212   -6.3723    0.0000 C   0  0  0  0  0  0  0  0  0  0  0  0
   -0.6078   -6.3723    0.0000 C   0  0  0  0  0  0  0  0  0  0  0  0
   -0.6078   -7.1973    0.0000 C   0  0  0  0  0  0  0  0  0  0  0  0
   -1.3222   -7.6098    0.0000 C   0  0  0  0  0  0  0  0  0  0  0  0
   -1.3222   -8.4348    0.0000 C   0  0  0  0  0  0  0  0  0  0  0  0
   -2.0367   -8.8473    0.0000 C   0  0  0  0  0  0  0  0  0  0  0  0
   -2.4492   -8.1328    0.0000 C   0  0  0  0  0  0  0  0  0  0  0  0
   -1.6242   -9.5618    0.0000 C   0  0  0  0  0  0  0  0  0  0  0  0
   -2.7512   -9.2598    0.0000 C   0  0  0  0  0  0  0  0  0  0  0  0
   -2.7512  -10.0848    0.0000 C   0  0  0  0  0  0  0  0  0  0  0  0
   -3.4656  -10.4973    0.0000 C   0  0  0  0  0  0  0  0  0  0  0  0
   -4.1801  -10.0848    0.0000 C   0  0  0  0  0  0  0  0  0  0  0  0
   -3.4656  -11.3223    0.0000 C   0  0  0  0  0  0  0  0  0  0  0  0
   -4.1801  -11.7348    0.0000 C   0  0  0  0  0  0  0  0  0  0  0  0
   -4.1801  -12.5598    0.0000 C   0  0  0  0  0  0  0  0  0  0  0  0
   -3.4656  -12.9723    0.0000 C   0  0  0  0  0  0  0  0  0  0  0  0
   -4.8946  -12.9723    0.0000 C   0  0  0  0  0  0  0  0  0  0  0  0
   -4.8946  -13.7973    0.0000 C   0  0  0  0  0  0  0  0  0  0  0  0
   -5.6091  -14.2098    0.0000 C   0  0  0  0  0  0  0  0  0  0  0  0
   -5.6091  -15.0348    0.0000 C   0  0  0  0  0  0  0  0  0  0  0  0
   -6.3235  -15.4473    0.0000 C   0  0  0  0  0  0  0  0  0  0  0  0
   -4.8946  -15.4473    0.0000 C   0  0  0  0  0  0  0  0  0  0  0  0
    4.3935    0.6402    0.0000 O   0  0  0  0  0  0  0  0  0  0  0  0
    5.1080    1.0527    0.0000 C   0  0  2  0  0  0  0  0  0  0  0  0
    5.8225    0.6402    0.0000 C   0  0  0  0  0  0  0  0  0  0  0  0
    6.5369    1.0527    0.0000 O   0  0  0  0  0  0  0  0  0  0  0  0
    5.8225   -0.1848    0.0000 O   0  0  0  0  0  0  0  0  0  0  0  0
    5.1080    1.8777    0.0000 C   0  0  1  0  0  0  0  0  0  0  0  0
    5.9205    1.7344    0.0000 C   0  0  0  0  0  0  0  0  0  0  0  0
    5.3902    2.6529    0.0000 O   0  0  0  0  0  0  0  0  0  0  0  0
    4.3935    2.2902    0.0000 C   0  0  2  0  0  0  0  0  0  0  0  0
    4.3935    3.1152    0.0000 O   0  0  0  0  0  0  0  0  0  0  0  0
    5.1080    3.5277    0.0000 C   0  0  0  0  0  0  0  0  0  0  0  0
    5.8225    3.1152    0.0000 O   0  0  0  0  0  0  0  0  0  0  0  0
    5.5929    4.1951    0.0000 N   0  0  0  0  0  0  0  0  0  0  0  0
    3.6791    3.5277    0.0000 O   0  0  0  0  0  0  0  0  0  0  0  0
    3.6791    4.3527    0.0000 C   0  0  2  0  0  0  0  0  0  0  0  0
    4.3935    4.7652    0.0000 C   0  0  0  0  0  0  0  0  0  0  0  0
    5.1080    4.3527    0.0000 O   0  0  0  0  0  0  0  0  0  0  0  0
    5.8225    4.7652    0.0000 C   0  0  2  0  0  0  0  0  0  0  0  0
    5.8225    5.5902    0.0000 O   0  0  0  0  0  0  0  0  0  0  0  0
    6.5369    6.0027    0.0000 C   0  0  2  0  0  0  0  0  0  0  0  0
    6.5369    6.8277    0.0000 C   0  0  0  0  0  0  0  0  0  0  0  0
    7.2514    7.2402    0.0000 O   0  0  0  0  0  0  0  0  0  0  0  0
    7.2514    5.5902    0.0000 C   0  0  1  0  0  0  0  0  0  0  0  0
    7.9659    6.0027    0.0000 O   0  0  0  0  0  0  0  0  0  0  0  0
    7.2514    4.7652    0.0000 C   0  0  2  0  0  0  0  0  0  0  0  0
    7.9659    4.3527    0.0000 O   0  0  0  0  0  0  0  0  0  0  0  0
    6.5369    4.3527    0.0000 C   0  0  1  0  0  0  0  0  0  0  0  0
    6.5369    3.5277    0.0000 O   0  0  0  0  0  0  0  0  0  0  0  0
    2.2501    6.8277    0.0000 C   0  0  2  0  0  0  0  0  0  0  0  0
    2.9646    7.2402    0.0000 N   0  0  0  0  0  0  0  0  0  0  0  0
    2.9646    8.0652    0.0000 C   0  0  0  0  0  0  0  0  0  0  0  0
    2.2501    8.4777    0.0000 O   0  0  0  0  0  0  0  0  0  0  0  0
    3.6791    8.4777    0.0000 C   0  0  0  0  0  0  0  0  0  0  0  0
    1.5356    7.2402    0.0000 C   0  0  1  0  0  0  0  0  0  0  0  0
    1.5356    8.0652    0.0000 O   0  0  0  0  0  0  0  0  0  0  0  0
    0.8212    6.8277    0.0000 C   0  0  2  0  0  0  0  0  0  0  0  0
    0.1067    7.2402    0.0000 O   0  0  0  0  0  0  0  0  0  0  0  0
   -0.6078    6.8277    0.0000 C   0  0  2  0  0  0  0  0  0  0  0  0
   -0.6078    6.0027    0.0000 O   0  0  0  0  0  0  0  0  0  0  0  0
   -1.3222    5.5902    0.0000 C   0  0  1  0  0  0  0  0  0  0  0  0
   -2.0367    6.0027    0.0000 C   0  0  2  0  0  0  0  0  0  0  0  0
   -2.7512    5.5902    0.0000 O   0  0  0  0  0  0  0  0  0  0  0  0
   -2.0367    6.8277    0.0000 C   0  0  2  0  0  0  0  0  0  0  0  0
   -2.7512    7.2402    0.0000 O   0  0  0  0  0  0  0  0  0  0  0  0
   -1.3222    7.2402    0.0000 C   0  0  1  0  0  0  0  0  0  0  0  0
   -1.3222    8.0652    0.0000 O   0  0  0  0  0  0  0  0  0  0  0  0
   -1.3222    4.7652    0.0000 C   0  0  0  0  0  0  0  0  0  0  0  0
   -0.6078    4.3527    0.0000 O   0  0  0  0  0  0  0  0  0  0  0  0
   -2.0367    4.3527    0.0000 N   0  0  0  0  0  0  0  0  0  0  0  0
   -2.0367    3.5277    0.0000 C   0  0  0  0  0  0  0  0  0  0  0  0
   -2.7041    3.0428    0.0000 C   0  0  0  0  0  0  0  0  0  0  0  0
   -3.4888    3.2977    0.0000 O   0  0  0  0  0  0  0  0  0  0  0  0
   -2.4492    2.2581    0.0000 C   0  0  0  0  0  0  0  0  0  0  0  0
   -1.6242    2.2581    0.0000 C   0  0  0  0  0  0  0  0  0  0  0  0
   -1.3693    3.0428    0.0000 C   0  0  0  0  0  0  0  0  0  0  0  0
   -0.5846    3.2977    0.0000 O   0  0  0  0  0  0  0  0  0  0  0  0
  2  1  1  6  0  0  0
  2  3  1  0  0  0  0
  3  4  1  0  0  0  0
  4  5  1  6  0  0  0
  6  5  1  6  0  0  0
  6  7  1  0  0  0  0
  7  8  1  1  0  0  0
  7  9  1  0  0  0  0
  9 10  1  6  0  0  0
 10 11  1  0  0  0  0
 11 12  2  0  0  0  0
 11 13  1  0  0  0  0
  9 14  1  0  0  0  0
 14 15  1  1  0  0  0
 16 15  1  6  0  0  0
 16 17  1  0  0  0  0
 17 18  1  6  0  0  0
 18 19  1  0  0  0  0
 19 20  2  0  0  0  0
 19 21  1  0  0  0  0
 19 22  1  0  0  0  0
 22 23  1  0  0  0  0
 23 24  1  0  0  0  0
 24 25  1  1  0  0  0
 24 26  1  0  0  0  0
 26 27  2  0  0  0  0
 26 28  1  0  0  0  0
 28 29  1  0  0  0  0
 29 30  1  0  0  0  0
 30 31  1  0  0  0  0
 31 32  2  0  0  0  0
 32 33  1  0  0  0  0
 32 34  1  0  0  0  0
 34 35  1  0  0  0  0
 35 36  1  0  0  0  0
 36 37  2  0  0  0  0
 37 38  1  0  0  0  0
 38 39  1  0  0  0  0
 38 40  1  0  0  0  0
 38 41  1  0  0  0  0
 41 42  1  0  0  0  0
 42 43  1  0  0  0  0
 43 44  2  0  0  0  0
 43 45  1  0  0  0  0
 45 46  1  0  0  0  0
 46 47  2  0  0  0  0
 47 48  1  0  0  0  0
 47 49  1  0  0  0  0
 49 50  1  0  0  0  0
 50 51  1  0  0  0  0
 51 52  2  0  0  0  0
 52 53  1  0  0  0  0
 52 54  1  0  0  0  0
 17 55  1  0  0  0  0
 55 56  1  0  0  0  0
 56 57  1  1  0  0  0
 57 58  2  0  0  0  0
 57 59  1  0  0  0  0
 56 60  1  0  0  0  0
 60 61  1  1  0  0  0
 60 62  1  6  0  0  0
 60 63  1  0  0  0  0
 16 63  1  0  0  0  0
 63 64  1  1  0  0  0
 64 65  1  0  0  0  0
 65 66  2  0  0  0  0
 65 67  1  0  0  0  0
 14 68  1  0  0  0  0
 68 69  1  0  0  0  0
  6 69  1  0  0  0  0
 69 70  1  1  0  0  0
 70 71  1  0  0  0  0
 72 71  1  6  0  0  0
 72 73  1  0  0  0  0
 73 74  1  0  0  0  0
 74 75  1  6  0  0  0
 75 76  1  0  0  0  0
 74 77  1  0  0  0  0
 77 78  1  1  0  0  0
 77 79  1  0  0  0  0
 79 80  1  6  0  0  0
 79 81  1  0  0  0  0
 72 81  1  0  0  0  0
 81 82  1  1  0  0  0
  4 83  1  0  0  0  0
 83 84  1  1  0  0  0
 84 85  1  0  0  0  0
 85 86  2  0  0  0  0
 85 87  1  0  0  0  0
 83 88  1  0  0  0  0
 88 89  1  6  0  0  0
 88 90  1  0  0  0  0
  2 90  1  0  0  0  0
 90 91  1  1  0  0  0
 92 91  1  6  0  0  0
 92 93  1  0  0  0  0
 93 94  1  0  0  0  0
 94 95  1  0  0  0  0
 95 96  1  6  0  0  0
 95 97  1  0  0  0  0
 97 98  1  6  0  0  0
 97 99  1  0  0  0  0
 92 99  1  0  0  0  0
 99100  1  1  0  0  0
 94101  1  6  0  0  0
101102  2  0  0  0  0
101103  1  0  0  0  0
103104  1  0  0  0  0
104105  2  0  0  0  0
105106  1  0  0  0  0
105107  1  0  0  0  0
107108  1  0  0  0  0
108109  1  0  0  0  0
104109  1  0  0  0  0
109110  2  0  0  0  0
M  END
>  <ID>
5603

>  <PREFERRED_NAME>
bambermycin

>  <CAS_RN>
11015-37-5

>  <SYNONYMS>
bambermycin
bambermycins

>  <URL>
http://drugcentral.org/drugcard/5603/view

$$$$
