bamifylline
  -INDIGO-06102310552D

 28 30  0  0  0  0  0  0  0  0999 V2000
   -1.4005    0.2943    0.0000 C   0  0  0  0  0  0  0  0  0  0  0  0
   -2.1149    0.7068    0.0000 C   0  0  0  0  0  0  0  0  0  0  0  0
   -2.1149    1.5318    0.0000 N   0  0  0  0  0  0  0  0  0  0  0  0
   -2.8294    1.9443    0.0000 C   0  0  0  0  0  0  0  0  0  0  0  0
   -3.5439    1.5318    0.0000 C   0  0  0  0  0  0  0  0  0  0  0  0
   -4.2584    1.9443    0.0000 O   0  0  0  0  0  0  0  0  0  0  0  0
   -1.4005    1.9443    0.0000 C   0  0  0  0  0  0  0  0  0  0  0  0
   -0.6860    1.5318    0.0000 C   0  0  0  0  0  0  0  0  0  0  0  0
    0.0285    1.9443    0.0000 N   0  0  0  0  0  0  0  0  0  0  0  0
    0.7821    1.6087    0.0000 C   0  0  0  0  0  0  0  0  0  0  0  0
    0.9537    0.8018    0.0000 C   0  0  0  0  0  0  0  0  0  0  0  0
    1.7383    0.5468    0.0000 C   0  0  0  0  0  0  0  0  0  0  0  0
    2.3514    1.0989    0.0000 C   0  0  0  0  0  0  0  0  0  0  0  0
    3.1360    0.8439    0.0000 C   0  0  0  0  0  0  0  0  0  0  0  0
    3.3075    0.0369    0.0000 C   0  0  0  0  0  0  0  0  0  0  0  0
    2.6944   -0.5151    0.0000 C   0  0  0  0  0  0  0  0  0  0  0  0
    1.9098   -0.2601    0.0000 C   0  0  0  0  0  0  0  0  0  0  0  0
    1.3342    2.2218    0.0000 N   0  0  0  0  0  0  0  0  0  0  0  0
    0.9217    2.9363    0.0000 C   0  0  0  0  0  0  0  0  0  0  0  0
    0.1147    2.7648    0.0000 C   0  0  0  0  0  0  0  0  0  0  0  0
   -0.4373    3.3779    0.0000 C   0  0  0  0  0  0  0  0  0  0  0  0
   -1.2443    3.2063    0.0000 O   0  0  0  0  0  0  0  0  0  0  0  0
   -0.1824    4.1625    0.0000 N   0  0  0  0  0  0  0  0  0  0  0  0
   -0.7344    4.7756    0.0000 C   0  0  0  0  0  0  0  0  0  0  0  0
    0.6246    4.3340    0.0000 C   0  0  0  0  0  0  0  0  0  0  0  0
    0.8795    5.1186    0.0000 O   0  0  0  0  0  0  0  0  0  0  0  0
    1.1766    3.7209    0.0000 N   0  0  0  0  0  0  0  0  0  0  0  0
    1.9836    3.8924    0.0000 C   0  0  0  0  0  0  0  0  0  0  0  0
  1  2  1  0  0  0  0
  2  3  1  0  0  0  0
  3  4  1  0  0  0  0
  4  5  1  0  0  0  0
  5  6  1  0  0  0  0
  3  7  1  0  0  0  0
  7  8  1  0  0  0  0
  8  9  1  0  0  0  0
  9 10  4  0  0  0  0
 10 11  1  0  0  0  0
 11 12  1  0  0  0  0
 12 13  4  0  0  0  0
 13 14  4  0  0  0  0
 14 15  4  0  0  0  0
 15 16  4  0  0  0  0
 16 17  4  0  0  0  0
 12 17  4  0  0  0  0
 10 18  4  0  0  0  0
 18 19  4  0  0  0  0
 19 20  4  0  0  0  0
  9 20  4  0  0  0  0
 20 21  1  0  0  0  0
 21 22  2  0  0  0  0
 21 23  1  0  0  0  0
 23 24  1  0  0  0  0
 23 25  1  0  0  0  0
 25 26  2  0  0  0  0
 25 27  1  0  0  0  0
 19 27  1  0  0  0  0
 27 28  1  0  0  0  0
M  END
>  <ID>
287

>  <PREFERRED_NAME>
bamifylline

>  <CAS_RN>
2016-63-9

>  <SYNONYMS>
bamifylline
bamiphylline
benzetamophylline
benzethamophylline

>  <URL>
http://drugcentral.org/drugcard/287/view

$$$$
