baricitinib
  -INDIGO-06102311192D

 26 29  0  0  0  0  0  0  0  0999 V2000
    2.9655    7.0772    0.0000 C   0  0  0  0  0  0  0  0  0  0  0  0
    3.7357    6.7815    0.0000 C   0  0  0  0  0  0  0  0  0  0  0  0
    3.8648    5.9667    0.0000 S   0  0  0  0  0  0  0  0  0  0  0  0
    3.0499    5.8376    0.0000 O   0  0  0  0  0  0  0  0  0  0  0  0
    4.6796    6.0957    0.0000 O   0  0  0  0  0  0  0  0  0  0  0  0
    3.9938    5.1518    0.0000 N   0  0  0  0  0  0  0  0  0  0  0  0
    4.6613    4.6669    0.0000 C   0  0  0  0  0  0  0  0  0  0  0  0
    4.1764    3.9995    0.0000 C   0  0  0  0  0  0  0  0  0  0  0  0
    4.8438    3.5146    0.0000 C   0  0  0  0  0  0  0  0  0  0  0  0
    4.7576    2.6941    0.0000 C   0  0  0  0  0  0  0  0  0  0  0  0
    4.6713    1.8736    0.0000 N   0  0  0  0  0  0  0  0  0  0  0  0
    3.5089    4.4844    0.0000 C   0  0  0  0  0  0  0  0  0  0  0  0
    3.6914    3.3320    0.0000 N   0  0  0  0  0  0  0  0  0  0  0  0
    3.9464    2.5474    0.0000 C   0  0  0  0  0  0  0  0  0  0  0  0
    3.2789    2.0625    0.0000 C   0  0  0  0  0  0  0  0  0  0  0  0
    2.6115    2.5474    0.0000 C   0  0  0  0  0  0  0  0  0  0  0  0
    2.8664    3.3320    0.0000 N   0  0  0  0  0  0  0  0  0  0  0  0
    3.2789    1.2375    0.0000 C   0  0  0  0  0  0  0  0  0  0  0  0
    3.9934    0.8250    0.0000 N   0  0  0  0  0  0  0  0  0  0  0  0
    3.9934    0.0000    0.0000 C   0  0  0  0  0  0  0  0  0  0  0  0
    3.2789   -0.4125    0.0000 N   0  0  0  0  0  0  0  0  0  0  0  0
    2.5645    0.0000    0.0000 C   0  0  0  0  0  0  0  0  0  0  0  0
    2.5645    0.8250    0.0000 C   0  0  0  0  0  0  0  0  0  0  0  0
    1.7798    1.0799    0.0000 C   0  0  0  0  0  0  0  0  0  0  0  0
    1.2949    0.4125    0.0000 C   0  0  0  0  0  0  0  0  0  0  0  0
    1.7798   -0.2549    0.0000 N   0  0  0  0  0  0  0  0  0  0  0  0
  1  2  1  0  0  0  0
  2  3  1  0  0  0  0
  3  4  2  0  0  0  0
  3  5  2  0  0  0  0
  3  6  1  0  0  0  0
  6  7  1  0  0  0  0
  7  8  1  0  0  0  0
  8  9  1  0  0  0  0
  9 10  1  0  0  0  0
 10 11  3  0  0  0  0
  8 12  1  0  0  0  0
  6 12  1  0  0  0  0
  8 13  1  0  0  0  0
 13 14  4  0  0  0  0
 14 15  4  0  0  0  0
 15 16  4  0  0  0  0
 16 17  4  0  0  0  0
 13 17  4  0  0  0  0
 15 18  1  0  0  0  0
 18 19  4  0  0  0  0
 19 20  4  0  0  0  0
 20 21  4  0  0  0  0
 21 22  4  0  0  0  0
 22 23  4  0  0  0  0
 18 23  4  0  0  0  0
 23 24  4  0  0  0  0
 24 25  4  0  0  0  0
 25 26  4  0  0  0  0
 22 26  4  0  0  0  0
M  STY  1   1 DAT
M  SLB  1   1   1
M  SAL   1  1  26
M  SDT   1 MRV_IMPLICIT_H
M  SDD   1     0.0000    0.0000    DA    ALL  1       1
M  SED   1 IMPL_H1
M  END
>  <ID>
5202

>  <PREFERRED_NAME>
baricitinib

>  <CAS_RN>
1187594-09-7

>  <SYNONYMS>
baricitinib
LY3009104
INCB028050
olumiant

>  <URL>
http://drugcentral.org/drugcard/5202/view

$$$$
