beclabuvir
  -INDIGO-06102311192D

 47 54  0  0  1  0  0  0  0  0999 V2000
    4.0626    6.8862    0.0000 C   0  0  0  0  0  0  0  0  0  0  0  0
    4.8420    6.5353    0.0000 O   0  0  0  0  0  0  0  0  0  0  0  0
    5.1982    5.7273    0.0000 C   0  0  0  0  0  0  0  0  0  0  0  0
    6.0132    5.5995    0.0000 C   0  0  0  0  0  0  0  0  0  0  0  0
    6.3101    4.8298    0.0000 C   0  0  0  0  0  0  0  0  0  0  0  0
    5.7919    4.1878    0.0000 C   0  0  0  0  0  0  0  0  0  0  0  0
    6.2002    3.4709    0.0000 C   0  0  0  0  0  0  0  0  0  0  0  0
    7.0234    3.4167    0.0000 C   0  0  0  0  0  0  0  0  0  0  0  0
    7.5511    4.0508    0.0000 C   0  0  0  0  0  0  0  0  0  0  0  0
    7.2658    4.8249    0.0000 C   0  0  0  0  0  0  0  0  0  0  0  0
    7.7936    5.4591    0.0000 C   0  0  0  0  0  0  0  0  0  0  0  0
    8.6066    5.3191    0.0000 C   0  0  0  0  0  0  0  0  0  0  0  0
    8.8919    4.5450    0.0000 C   0  0  0  0  0  0  0  0  0  0  0  0
    8.3642    3.9109    0.0000 C   0  0  0  0  0  0  0  0  0  0  0  0
    7.2262    2.6170    0.0000 C   0  0  0  0  0  0  0  0  0  0  0  0
    7.9562    2.2327    0.0000 C   0  0  0  0  0  0  0  0  0  0  0  0
    7.9884    1.4083    0.0000 C   0  0  0  0  0  0  0  0  0  0  0  0
    7.2905    0.9683    0.0000 C   0  0  0  0  0  0  0  0  0  0  0  0
    6.5605    1.3526    0.0000 C   0  0  0  0  0  0  0  0  0  0  0  0
    6.5284    2.1770    0.0000 C   0  0  0  0  0  0  0  0  0  0  0  0
    5.8942    2.7047    0.0000 N   0  0  0  0  0  0  0  0  0  0  0  0
    5.2117    2.5122    0.0000 C   0  0  0  0  0  0  0  0  0  0  0  0
    4.4256    2.9350    0.0000 C   0  0  1  0  0  0  0  0  0  0  0  0
    3.6384    3.4045    0.0000 C   0  0  0  0  0  0  0  0  0  0  0  0
    4.3688    3.7580    0.0000 C   0  0  1  0  0  0  0  0  0  0  0  0
    4.9769    4.3156    0.0000 C   0  0  0  0  0  0  0  0  0  0  0  0
    4.6800    5.0853    0.0000 C   0  0  0  0  0  0  0  0  0  0  0  0
    4.1396    1.9368    0.0000 C   0  0  0  0  0  0  0  0  0  0  0  0
    4.3316    1.0044    0.0000 O   0  0  0  0  0  0  0  0  0  0  0  0
    3.1839    2.2278    0.0000 N   0  0  0  0  0  0  0  0  0  0  0  0
    2.9900    3.2824    0.0000 C   0  0  0  0  0  0  0  0  0  0  0  0
    2.3420    2.7718    0.0000 C   0  0  0  0  0  0  0  0  0  0  0  0
    2.3371    1.9469    0.0000 C   0  0  0  0  0  0  0  0  0  0  0  0
    2.9791    1.4287    0.0000 C   0  0  0  0  0  0  0  0  0  0  0  0
    3.7844    1.6075    0.0000 C   0  0  0  0  0  0  0  0  0  0  0  0
    4.1468    2.3487    0.0000 N   0  0  0  0  0  0  0  0  0  0  0  0
    4.8927    1.9730    0.0000 C   0  0  0  0  0  0  0  0  0  0  0  0
    3.7932    3.0941    0.0000 C   0  0  0  0  0  0  0  0  0  0  0  0
    7.3839    0.0849    0.0000 C   0  0  0  0  0  0  0  0  0  0  0  0
    6.6184   -0.3236    0.0000 O   0  0  0  0  0  0  0  0  0  0  0  0
    8.0430   -0.4993    0.0000 N   0  0  0  0  0  0  0  0  0  0  0  0
    8.1950   -1.3635    0.0000 S   0  0  0  0  0  0  0  0  0  0  0  0
    7.3389   -1.3544    0.0000 O   0  0  0  0  0  0  0  0  0  0  0  0
    9.0619   -1.2936    0.0000 O   0  0  0  0  0  0  0  0  0  0  0  0
    8.1032   -2.2384    0.0000 N   0  0  0  0  0  0  0  0  0  0  0  0
    8.7284   -2.8058    0.0000 C   0  0  0  0  0  0  0  0  0  0  0  0
    7.4620   -2.8054    0.0000 C   0  0  0  0  0  0  0  0  0  0  0  0
  1  2  1  0  0  0  0
  2  3  1  0  0  0  0
  3  4  4  0  0  0  0
  4  5  4  0  0  0  0
  5  6  4  0  0  0  0
  6  7  1  0  0  0  0
  7  8  4  0  0  0  0
  8  9  1  0  0  0  0
  9 10  1  0  0  0  0
 10 11  1  0  0  0  0
 11 12  1  0  0  0  0
 12 13  1  0  0  0  0
 13 14  1  0  0  0  0
  9 14  1  0  0  0  0
  8 15  4  0  0  0  0
 15 16  4  0  0  0  0
 16 17  4  0  0  0  0
 17 18  4  0  0  0  0
 18 19  4  0  0  0  0
 19 20  4  0  0  0  0
 15 20  4  0  0  0  0
 20 21  4  0  0  0  0
  7 21  4  0  0  0  0
 21 22  1  0  0  0  0
 22 23  1  0  0  0  0
 23 24  1  0  0  0  0
 25 24  1  1  0  0  0
 23 25  1  0  0  0  0
 25 26  1  0  0  0  0
  6 26  4  0  0  0  0
 26 27  4  0  0  0  0
  3 27  4  0  0  0  0
 23 28  1  6  0  0  0
 28 29  2  0  0  0  0
 28 30  1  0  0  0  0
 30 31  1  0  0  0  0
 31 32  1  0  0  0  0
 32 33  1  0  0  0  0
 33 34  1  0  0  0  0
 30 34  1  0  0  0  0
 34 35  1  0  0  0  0
 35 36  1  0  0  0  0
 36 37  1  0  0  0  0
 36 38  1  0  0  0  0
 31 38  1  0  0  0  0
 18 39  1  0  0  0  0
 39 40  2  0  0  0  0
 39 41  1  0  0  0  0
 41 42  1  0  0  0  0
 42 43  2  0  0  0  0
 42 44  2  0  0  0  0
 42 45  1  0  0  0  0
 45 46  1  0  0  0  0
 45 47  1  0  0  0  0
M  END
>  <ID>
5215

>  <PREFERRED_NAME>
beclabuvir

>  <CAS_RN>
958002-33-0

>  <SYNONYMS>
beclabuvir
beclabuvir hydrochloride
beclabuvir HCl
BMS-791325
BMS 791325

>  <URL>
http://drugcentral.org/drugcard/5215/view

$$$$
