belotecan
  -INDIGO-06102310552D

 32 36  0  0  1  0  0  0  0  0999 V2000
    5.4176    2.6122    0.0000 C   0  0  0  0  0  0  0  0  0  0  0  0
    5.9255    1.9620    0.0000 C   0  0  0  0  0  0  0  0  0  0  0  0
    5.6165    1.1971    0.0000 C   0  0  1  0  0  0  0  0  0  0  0  0
    4.9168    1.6343    0.0000 O   0  0  0  0  0  0  0  0  0  0  0  0
    6.4235    1.0256    0.0000 C   0  0  0  0  0  0  0  0  0  0  0  0
    6.9755    1.6387    0.0000 O   0  0  0  0  0  0  0  0  0  0  0  0
    6.6784    0.2410    0.0000 O   0  0  0  0  0  0  0  0  0  0  0  0
    6.1264   -0.3721    0.0000 C   0  0  0  0  0  0  0  0  0  0  0  0
    5.3194   -0.2006    0.0000 C   0  0  0  0  0  0  0  0  0  0  0  0
    5.0645    0.5840    0.0000 C   0  0  0  0  0  0  0  0  0  0  0  0
    4.2575    0.7556    0.0000 C   0  0  0  0  0  0  0  0  0  0  0  0
    3.7054    0.1425    0.0000 C   0  0  0  0  0  0  0  0  0  0  0  0
    3.9604   -0.6422    0.0000 N   0  0  0  0  0  0  0  0  0  0  0  0
    3.2929   -1.1271    0.0000 C   0  0  0  0  0  0  0  0  0  0  0  0
    2.6255   -0.6422    0.0000 C   0  0  0  0  0  0  0  0  0  0  0  0
    1.8185   -0.8137    0.0000 C   0  0  0  0  0  0  0  0  0  0  0  0
    1.5636   -1.5983    0.0000 C   0  0  0  0  0  0  0  0  0  0  0  0
    0.7566   -1.7698    0.0000 C   0  0  0  0  0  0  0  0  0  0  0  0
    0.5017   -2.5545    0.0000 N   0  0  0  0  0  0  0  0  0  0  0  0
   -0.3053   -2.7260    0.0000 C   0  0  0  0  0  0  0  0  0  0  0  0
   -0.5602   -3.5106    0.0000 C   0  0  0  0  0  0  0  0  0  0  0  0
   -0.8573   -2.1129    0.0000 C   0  0  0  0  0  0  0  0  0  0  0  0
    1.2665   -0.2006    0.0000 C   0  0  0  0  0  0  0  0  0  0  0  0
    0.4595   -0.3721    0.0000 C   0  0  0  0  0  0  0  0  0  0  0  0
   -0.0925    0.2410    0.0000 C   0  0  0  0  0  0  0  0  0  0  0  0
    0.1624    1.0256    0.0000 C   0  0  0  0  0  0  0  0  0  0  0  0
    0.9694    1.1971    0.0000 C   0  0  0  0  0  0  0  0  0  0  0  0
    1.5214    0.5840    0.0000 C   0  0  0  0  0  0  0  0  0  0  0  0
    2.3284    0.7556    0.0000 N   0  0  0  0  0  0  0  0  0  0  0  0
    2.8804    0.1425    0.0000 C   0  0  0  0  0  0  0  0  0  0  0  0
    4.7674   -0.8137    0.0000 C   0  0  0  0  0  0  0  0  0  0  0  0
    5.0223   -1.5983    0.0000 O   0  0  0  0  0  0  0  0  0  0  0  0
  1  2  1  0  0  0  0
  3  2  1  1  0  0  0
  3  4  1  6  0  0  0
  3  5  1  0  0  0  0
  5  6  2  0  0  0  0
  5  7  1  0  0  0  0
  7  8  1  0  0  0  0
  8  9  1  0  0  0  0
  9 10  2  0  0  0  0
  3 10  1  0  0  0  0
 10 11  1  0  0  0  0
 11 12  2  0  0  0  0
 12 13  1  0  0  0  0
 13 14  1  0  0  0  0
 14 15  1  0  0  0  0
 15 16  4  0  0  0  0
 16 17  1  0  0  0  0
 17 18  1  0  0  0  0
 18 19  1  0  0  0  0
 19 20  1  0  0  0  0
 20 21  1  0  0  0  0
 20 22  1  0  0  0  0
 16 23  4  0  0  0  0
 23 24  4  0  0  0  0
 24 25  4  0  0  0  0
 25 26  4  0  0  0  0
 26 27  4  0  0  0  0
 27 28  4  0  0  0  0
 23 28  4  0  0  0  0
 28 29  4  0  0  0  0
 29 30  4  0  0  0  0
 12 30  1  0  0  0  0
 15 30  4  0  0  0  0
 13 31  1  0  0  0  0
  9 31  1  0  0  0  0
 31 32  2  0  0  0  0
M  END
>  <ID>
296

>  <PREFERRED_NAME>
belotecan

>  <CAS_RN>
256411-32-2

>  <SYNONYMS>
belotecan
camtobell
belotecan hydrochloride
CKD602
CKD-602

>  <URL>
http://drugcentral.org/drugcard/296/view

$$$$
