benazepril
  -INDIGO-06102310552D

 31 33  0  0  1  0  0  0  0  0999 V2000
   -2.0133   -1.3719    0.0000 C   0  0  0  0  0  0  0  0  0  0  0  0
   -2.0133   -2.1969    0.0000 C   0  0  0  0  0  0  0  0  0  0  0  0
   -1.2988   -2.6094    0.0000 O   0  0  0  0  0  0  0  0  0  0  0  0
   -1.2988   -3.4344    0.0000 C   0  0  0  0  0  0  0  0  0  0  0  0
   -2.0133   -3.8469    0.0000 O   0  0  0  0  0  0  0  0  0  0  0  0
   -0.5844   -3.8469    0.0000 C   0  0  2  0  0  0  0  0  0  0  0  0
    0.1301   -3.4344    0.0000 C   0  0  0  0  0  0  0  0  0  0  0  0
    0.1301   -2.6094    0.0000 C   0  0  0  0  0  0  0  0  0  0  0  0
    0.8446   -2.1969    0.0000 C   0  0  0  0  0  0  0  0  0  0  0  0
    0.8446   -1.3719    0.0000 C   0  0  0  0  0  0  0  0  0  0  0  0
    1.5590   -0.9594    0.0000 C   0  0  0  0  0  0  0  0  0  0  0  0
    2.2735   -1.3719    0.0000 C   0  0  0  0  0  0  0  0  0  0  0  0
    2.2735   -2.1969    0.0000 C   0  0  0  0  0  0  0  0  0  0  0  0
    1.5590   -2.6094    0.0000 C   0  0  0  0  0  0  0  0  0  0  0  0
   -0.5844   -4.6719    0.0000 N   0  0  0  0  0  0  0  0  0  0  0  0
    0.1301   -5.0844    0.0000 C   0  0  1  0  0  0  0  0  0  0  0  0
    0.8117   -4.6196    0.0000 C   0  0  0  0  0  0  0  0  0  0  0  0
    1.6001   -4.8628    0.0000 C   0  0  0  0  0  0  0  0  0  0  0  0
    1.9015   -5.6308    0.0000 C   0  0  0  0  0  0  0  0  0  0  0  0
    2.7265   -5.6308    0.0000 C   0  0  0  0  0  0  0  0  0  0  0  0
    3.1390   -6.3452    0.0000 C   0  0  0  0  0  0  0  0  0  0  0  0
    2.7265   -7.0597    0.0000 C   0  0  0  0  0  0  0  0  0  0  0  0
    1.9015   -7.0597    0.0000 C   0  0  0  0  0  0  0  0  0  0  0  0
    1.4890   -6.3452    0.0000 C   0  0  0  0  0  0  0  0  0  0  0  0
    0.6732   -6.4682    0.0000 N   0  0  0  0  0  0  0  0  0  0  0  0
    0.4300   -7.2565    0.0000 C   0  0  0  0  0  0  0  0  0  0  0  0
    0.9912   -7.8613    0.0000 C   0  0  0  0  0  0  0  0  0  0  0  0
    0.7480   -8.6497    0.0000 O   0  0  0  0  0  0  0  0  0  0  0  0
    1.7955   -7.6777    0.0000 O   0  0  0  0  0  0  0  0  0  0  0  0
    0.0684   -5.9070    0.0000 C   0  0  0  0  0  0  0  0  0  0  0  0
   -0.6995   -6.2085    0.0000 O   0  0  0  0  0  0  0  0  0  0  0  0
  1  2  1  0  0  0  0
  2  3  1  0  0  0  0
  3  4  1  0  0  0  0
  4  5  2  0  0  0  0
  4  6  1  0  0  0  0
  6  7  1  0  0  0  0
  7  8  1  0  0  0  0
  8  9  1  0  0  0  0
  9 10  4  0  0  0  0
 10 11  4  0  0  0  0
 11 12  4  0  0  0  0
 12 13  4  0  0  0  0
 13 14  4  0  0  0  0
  9 14  4  0  0  0  0
  6 15  1  6  0  0  0
 16 15  1  1  0  0  0
 16 17  1  0  0  0  0
 17 18  1  0  0  0  0
 18 19  1  0  0  0  0
 19 20  4  0  0  0  0
 20 21  4  0  0  0  0
 21 22  4  0  0  0  0
 22 23  4  0  0  0  0
 23 24  4  0  0  0  0
 19 24  4  0  0  0  0
 24 25  1  0  0  0  0
 25 26  1  0  0  0  0
 26 27  1  0  0  0  0
 27 28  1  0  0  0  0
 27 29  2  0  0  0  0
 25 30  1  0  0  0  0
 16 30  1  0  0  0  0
 30 31  2  0  0  0  0
M  END
>  <ID>
299

>  <PREFERRED_NAME>
benazepril

>  <CAS_RN>
86541-75-5

>  <SYNONYMS>
benazepril
cibacen
benazepril hydrochloride
benazepril HCl

>  <URL>
http://drugcentral.org/drugcard/299/view

$$$$
