bendamustine
  -INDIGO-06102310552D

 23 24  0  0  0  0  0  0  0  0999 V2000
   -1.0484   -3.8951    0.0000 C   0  0  0  0  0  0  0  0  0  0  0  0
   -1.6005   -3.2820    0.0000 N   0  0  0  0  0  0  0  0  0  0  0  0
   -2.4209   -3.3682    0.0000 C   0  0  0  0  0  0  0  0  0  0  0  0
   -2.8334   -4.0827    0.0000 C   0  0  0  0  0  0  0  0  0  0  0  0
   -2.4209   -4.7971    0.0000 C   0  0  0  0  0  0  0  0  0  0  0  0
   -2.8334   -5.5116    0.0000 C   0  0  0  0  0  0  0  0  0  0  0  0
   -2.4209   -6.2261    0.0000 C   0  0  0  0  0  0  0  0  0  0  0  0
   -2.8334   -6.9406    0.0000 O   0  0  0  0  0  0  0  0  0  0  0  0
   -1.5959   -6.2261    0.0000 O   0  0  0  0  0  0  0  0  0  0  0  0
   -2.7565   -2.6145    0.0000 N   0  0  0  0  0  0  0  0  0  0  0  0
   -2.1434   -2.0625    0.0000 C   0  0  0  0  0  0  0  0  0  0  0  0
   -2.1434   -1.2375    0.0000 C   0  0  0  0  0  0  0  0  0  0  0  0
   -1.4289   -0.8250    0.0000 C   0  0  0  0  0  0  0  0  0  0  0  0
   -0.7145   -1.2375    0.0000 C   0  0  0  0  0  0  0  0  0  0  0  0
   -0.7145   -2.0625    0.0000 C   0  0  0  0  0  0  0  0  0  0  0  0
   -1.4289   -2.4750    0.0000 C   0  0  0  0  0  0  0  0  0  0  0  0
   -1.4289    0.0000    0.0000 N   0  0  0  0  0  0  0  0  0  0  0  0
   -2.1434    0.4125    0.0000 C   0  0  0  0  0  0  0  0  0  0  0  0
   -2.1434    1.2375    0.0000 C   0  0  0  0  0  0  0  0  0  0  0  0
   -2.8579    1.6500    0.0000 Cl  0  0  0  0  0  0  0  0  0  0  0  0
   -0.7145    0.4125    0.0000 C   0  0  0  0  0  0  0  0  0  0  0  0
   -0.7145    1.2375    0.0000 C   0  0  0  0  0  0  0  0  0  0  0  0
    0.0000    1.6500    0.0000 Cl  0  0  0  0  0  0  0  0  0  0  0  0
  1  2  1  0  0  0  0
  2  3  4  0  0  0  0
  3  4  1  0  0  0  0
  4  5  1  0  0  0  0
  5  6  1  0  0  0  0
  6  7  1  0  0  0  0
  7  8  1  0  0  0  0
  7  9  2  0  0  0  0
  3 10  4  0  0  0  0
 10 11  4  0  0  0  0
 11 12  4  0  0  0  0
 12 13  4  0  0  0  0
 13 14  4  0  0  0  0
 14 15  4  0  0  0  0
 15 16  4  0  0  0  0
  2 16  4  0  0  0  0
 11 16  4  0  0  0  0
 13 17  1  0  0  0  0
 17 18  1  0  0  0  0
 18 19  1  0  0  0  0
 19 20  1  0  0  0  0
 17 21  1  0  0  0  0
 21 22  1  0  0  0  0
 22 23  1  0  0  0  0
M  END
>  <ID>
302

>  <PREFERRED_NAME>
bendamustine

>  <CAS_RN>
16506-27-7

>  <SYNONYMS>
bendamustine
bendamustine hydrochloride
treanda
bendamustine HCl

>  <URL>
http://drugcentral.org/drugcard/302/view

$$$$
