benzydamine
  -INDIGO-06102311102D

 23 25  0  0  0  0  0  0  0  0999 V2000
   -4.2584    1.9443    0.0000 C   0  0  0  0  0  0  0  0  0  0  0  0
   -3.5439    1.5318    0.0000 N   0  0  0  0  0  0  0  0  0  0  0  0
   -3.5439    0.7068    0.0000 C   0  0  0  0  0  0  0  0  0  0  0  0
   -2.8294    1.9443    0.0000 C   0  0  0  0  0  0  0  0  0  0  0  0
   -2.1149    1.5318    0.0000 C   0  0  0  0  0  0  0  0  0  0  0  0
   -1.4005    1.9443    0.0000 C   0  0  0  0  0  0  0  0  0  0  0  0
   -0.6860    1.5318    0.0000 O   0  0  0  0  0  0  0  0  0  0  0  0
    0.0285    1.9443    0.0000 C   0  0  0  0  0  0  0  0  0  0  0  0
    0.7821    1.6087    0.0000 N   0  0  0  0  0  0  0  0  0  0  0  0
    1.3342    2.2218    0.0000 N   0  0  0  0  0  0  0  0  0  0  0  0
    2.1547    2.1356    0.0000 C   0  0  0  0  0  0  0  0  0  0  0  0
    2.6396    2.8030    0.0000 C   0  0  0  0  0  0  0  0  0  0  0  0
    2.3040    3.5567    0.0000 C   0  0  0  0  0  0  0  0  0  0  0  0
    2.7889    4.2241    0.0000 C   0  0  0  0  0  0  0  0  0  0  0  0
    3.6094    4.1379    0.0000 C   0  0  0  0  0  0  0  0  0  0  0  0
    3.9450    3.3842    0.0000 C   0  0  0  0  0  0  0  0  0  0  0  0
    3.4601    2.7168    0.0000 C   0  0  0  0  0  0  0  0  0  0  0  0
    0.9217    2.9363    0.0000 C   0  0  0  0  0  0  0  0  0  0  0  0
    0.1147    2.7648    0.0000 C   0  0  0  0  0  0  0  0  0  0  0  0
   -0.4373    3.3779    0.0000 C   0  0  0  0  0  0  0  0  0  0  0  0
   -0.1824    4.1625    0.0000 C   0  0  0  0  0  0  0  0  0  0  0  0
    0.6246    4.3340    0.0000 C   0  0  0  0  0  0  0  0  0  0  0  0
    1.1766    3.7209    0.0000 C   0  0  0  0  0  0  0  0  0  0  0  0
  1  2  1  0  0  0  0
  2  3  1  0  0  0  0
  2  4  1  0  0  0  0
  4  5  1  0  0  0  0
  5  6  1  0  0  0  0
  6  7  1  0  0  0  0
  7  8  1  0  0  0  0
  8  9  4  0  0  0  0
  9 10  4  0  0  0  0
 10 11  1  0  0  0  0
 11 12  1  0  0  0  0
 12 13  4  0  0  0  0
 13 14  4  0  0  0  0
 14 15  4  0  0  0  0
 15 16  4  0  0  0  0
 16 17  4  0  0  0  0
 12 17  4  0  0  0  0
 10 18  4  0  0  0  0
 18 19  4  0  0  0  0
  8 19  4  0  0  0  0
 19 20  4  0  0  0  0
 20 21  4  0  0  0  0
 21 22  4  0  0  0  0
 22 23  4  0  0  0  0
 18 23  4  0  0  0  0
M  END
>  <ID>
3881

>  <PREFERRED_NAME>
benzydamine

>  <CAS_RN>
642-72-8

>  <SYNONYMS>
benzydamine
benzydamine HCl
benzydamine hydrochloride
benzydamide
benzidamine
benzindamine

>  <URL>
http://drugcentral.org/drugcard/3881/view

$$$$
