beraprost
  -INDIGO-06102310562D

 29 31  0  0  1  0  0  0  0  0999 V2000
   -3.8596   -8.4733    0.0000 C   0  0  0  0  0  0  0  0  0  0  0  0
   -3.6047   -7.6887    0.0000 C   0  0  0  0  0  0  0  0  0  0  0  0
   -3.3498   -6.9041    0.0000 C   0  0  0  0  0  0  0  0  0  0  0  0
   -3.0948   -6.1195    0.0000 C   0  0  0  0  0  0  0  0  0  0  0  0
   -2.2879   -5.9479    0.0000 C   0  0  0  0  0  0  0  0  0  0  0  0
   -1.7358   -6.5610    0.0000 C   0  0  0  0  0  0  0  0  0  0  0  0
   -2.0329   -5.1633    0.0000 C   0  0  2  0  0  0  0  0  0  0  0  0
   -2.5849   -4.5502    0.0000 O   0  0  0  0  0  0  0  0  0  0  0  0
   -1.2259   -4.9918    0.0000 C   0  0  0  0  0  0  0  0  0  0  0  0
   -0.9710   -4.2072    0.0000 C   0  0  0  0  0  0  0  0  0  0  0  0
   -0.1640   -4.0356    0.0000 C   0  0  1  0  0  0  0  0  0  0  0  0
    0.4491   -4.5877    0.0000 C   0  0  2  0  0  0  0  0  0  0  0  0
    0.3628   -5.4082    0.0000 O   0  0  0  0  0  0  0  0  0  0  0  0
    1.1635   -4.1752    0.0000 C   0  0  0  0  0  0  0  0  0  0  0  0
    0.9920   -3.3682    0.0000 C   0  0  2  0  0  0  0  0  0  0  0  0
    1.3276   -2.6145    0.0000 O   0  0  0  0  0  0  0  0  0  0  0  0
    0.7145   -2.0625    0.0000 C   0  0  0  0  0  0  0  0  0  0  0  0
    0.0000   -2.4750    0.0000 C   0  0  0  0  0  0  0  0  0  0  0  0
   -0.7145   -2.0625    0.0000 C   0  0  0  0  0  0  0  0  0  0  0  0
   -0.7145   -1.2375    0.0000 C   0  0  0  0  0  0  0  0  0  0  0  0
    0.0000   -0.8250    0.0000 C   0  0  0  0  0  0  0  0  0  0  0  0
    0.7145   -1.2375    0.0000 C   0  0  0  0  0  0  0  0  0  0  0  0
    1.4289   -0.8250    0.0000 C   0  0  0  0  0  0  0  0  0  0  0  0
    2.1434   -1.2375    0.0000 C   0  0  0  0  0  0  0  0  0  0  0  0
    2.8579   -0.8250    0.0000 C   0  0  0  0  0  0  0  0  0  0  0  0
    3.5724   -1.2375    0.0000 C   0  0  0  0  0  0  0  0  0  0  0  0
    4.2868   -0.8250    0.0000 O   0  0  0  0  0  0  0  0  0  0  0  0
    3.5724   -2.0625    0.0000 O   0  0  0  0  0  0  0  0  0  0  0  0
    0.1715   -3.2820    0.0000 C   0  0  2  0  0  0  0  0  0  0  0  0
  1  2  1  0  0  0  0
  2  3  3  0  0  0  0
  3  4  1  0  0  0  0
  4  5  1  0  0  0  0
  5  6  1  0  0  0  0
  5  7  1  0  0  0  0
  7  8  1  6  0  0  0
  7  9  1  0  0  0  0
  9 10  2  0  0  0  0
 11 10  1  6  0  0  0
 11 12  1  0  0  0  0
 12 13  1  1  0  0  0
 12 14  1  0  0  0  0
 14 15  1  0  0  0  0
 15 16  1  1  0  0  0
 16 17  1  0  0  0  0
 17 18  4  0  0  0  0
 18 19  4  0  0  0  0
 19 20  4  0  0  0  0
 20 21  4  0  0  0  0
 21 22  4  0  0  0  0
 17 22  4  0  0  0  0
 22 23  1  0  0  0  0
 23 24  1  0  0  0  0
 24 25  1  0  0  0  0
 25 26  1  0  0  0  0
 26 27  1  0  0  0  0
 26 28  2  0  0  0  0
 29 18  1  1  0  0  0
 11 29  1  0  0  0  0
 15 29  1  0  0  0  0
M  END
>  <ID>
343

>  <PREFERRED_NAME>
beraprost

>  <CAS_RN>
88430-50-6

>  <SYNONYMS>
beraprost
procylin
beraprost sodium

>  <URL>
http://drugcentral.org/drugcard/343/view

$$$$
