bermoprofen
  -INDIGO-06102311082D

 22 24  0  0  0  0  0  0  0  0999 V2000
   -0.5541   -2.4098    0.0000 C   0  0  0  0  0  0  0  0  0  0  0  0
   -0.3705   -1.6055    0.0000 C   0  0  0  0  0  0  0  0  0  0  0  0
   -0.9753   -1.0444    0.0000 C   0  0  0  0  0  0  0  0  0  0  0  0
   -1.7637   -1.2875    0.0000 O   0  0  0  0  0  0  0  0  0  0  0  0
   -0.7917   -0.2400    0.0000 O   0  0  0  0  0  0  0  0  0  0  0  0
    0.4178   -1.3623    0.0000 C   0  0  0  0  0  0  0  0  0  0  0  0
    0.6014   -0.5580    0.0000 C   0  0  0  0  0  0  0  0  0  0  0  0
    1.3897   -0.3148    0.0000 C   0  0  0  0  0  0  0  0  0  0  0  0
    1.9945   -0.8760    0.0000 C   0  0  0  0  0  0  0  0  0  0  0  0
    2.7378   -0.5180    0.0000 O   0  0  0  0  0  0  0  0  0  0  0  0
    3.4811   -0.8760    0.0000 C   0  0  0  0  0  0  0  0  0  0  0  0
    3.6647   -1.6803    0.0000 C   0  0  0  0  0  0  0  0  0  0  0  0
    3.1503   -2.3253    0.0000 C   0  0  0  0  0  0  0  0  0  0  0  0
    2.3253   -2.3253    0.0000 C   0  0  0  0  0  0  0  0  0  0  0  0
    1.9673   -3.0686    0.0000 O   0  0  0  0  0  0  0  0  0  0  0  0
    1.8109   -1.6803    0.0000 C   0  0  0  0  0  0  0  0  0  0  0  0
    1.0226   -1.9235    0.0000 C   0  0  0  0  0  0  0  0  0  0  0  0
    4.4530   -1.9235    0.0000 C   0  0  0  0  0  0  0  0  0  0  0  0
    5.0578   -1.3623    0.0000 C   0  0  0  0  0  0  0  0  0  0  0  0
    5.8461   -1.6055    0.0000 C   0  0  0  0  0  0  0  0  0  0  0  0
    4.8742   -0.5580    0.0000 C   0  0  0  0  0  0  0  0  0  0  0  0
    4.0859   -0.3148    0.0000 C   0  0  0  0  0  0  0  0  0  0  0  0
  1  2  1  0  0  0  0
  2  3  1  0  0  0  0
  3  4  1  0  0  0  0
  3  5  2  0  0  0  0
  2  6  1  0  0  0  0
  6  7  4  0  0  0  0
  7  8  4  0  0  0  0
  8  9  4  0  0  0  0
  9 10  1  0  0  0  0
 10 11  1  0  0  0  0
 11 12  4  0  0  0  0
 12 13  1  0  0  0  0
 13 14  1  0  0  0  0
 14 15  2  0  0  0  0
 14 16  1  0  0  0  0
  9 16  4  0  0  0  0
 16 17  4  0  0  0  0
  6 17  4  0  0  0  0
 12 18  4  0  0  0  0
 18 19  4  0  0  0  0
 19 20  1  0  0  0  0
 19 21  4  0  0  0  0
 21 22  4  0  0  0  0
 11 22  4  0  0  0  0
M  END
>  <ID>
3022

>  <PREFERRED_NAME>
bermoprofen

>  <CAS_RN>
78499-27-1

>  <SYNONYMS>
bermoprofen
AD-1590
dibenon

>  <URL>
http://drugcentral.org/drugcard/3022/view

$$$$
