berotralstat
  -INDIGO-06102311212D

 41 45  0  0  1  0  0  0  0  0999 V2000
   -1.4289   -2.1263    0.0000 C   0  0  0  0  0  0  0  0  0  0  0  0
   -2.2539   -2.1263    0.0000 C   0  0  0  0  0  0  0  0  0  0  0  0
   -1.8414   -1.4118    0.0000 C   0  0  0  0  0  0  0  0  0  0  0  0
   -1.8414   -0.5868    0.0000 C   0  0  0  0  0  0  0  0  0  0  0  0
   -1.1270   -0.1743    0.0000 N   0  0  0  0  0  0  0  0  0  0  0  0
   -1.1270    0.6507    0.0000 C   0  0  1  0  0  0  0  0  0  0  0  0
   -0.4125    1.0632    0.0000 C   0  0  0  0  0  0  0  0  0  0  0  0
   -0.4125    1.8882    0.0000 C   0  0  0  0  0  0  0  0  0  0  0  0
    0.3020    2.3007    0.0000 C   0  0  0  0  0  0  0  0  0  0  0  0
    1.0164    1.8882    0.0000 C   0  0  0  0  0  0  0  0  0  0  0  0
    1.0164    1.0632    0.0000 C   0  0  0  0  0  0  0  0  0  0  0  0
    0.3020    0.6507    0.0000 C   0  0  0  0  0  0  0  0  0  0  0  0
    1.7309    2.3007    0.0000 F   0  0  0  0  0  0  0  0  0  0  0  0
    0.3020    3.1257    0.0000 N   0  0  0  0  0  0  0  0  0  0  0  0
    1.0164    3.5382    0.0000 C   0  0  0  0  0  0  0  0  0  0  0  0
    1.7309    3.1257    0.0000 O   0  0  0  0  0  0  0  0  0  0  0  0
    1.0164    4.3632    0.0000 C   0  0  0  0  0  0  0  0  0  0  0  0
    0.3490    4.8481    0.0000 C   0  0  0  0  0  0  0  0  0  0  0  0
    0.6039    5.6327    0.0000 C   0  0  0  0  0  0  0  0  0  0  0  0
    1.4289    5.6327    0.0000 N   0  0  0  0  0  0  0  0  0  0  0  0
    1.6839    4.8481    0.0000 N   0  0  0  0  0  0  0  0  0  0  0  0
    2.4685    4.5931    0.0000 C   0  0  0  0  0  0  0  0  0  0  0  0
    3.0816    5.1452    0.0000 C   0  0  0  0  0  0  0  0  0  0  0  0
    3.8662    4.8902    0.0000 C   0  0  0  0  0  0  0  0  0  0  0  0
    4.0377    4.0833    0.0000 C   0  0  0  0  0  0  0  0  0  0  0  0
    3.4247    3.5312    0.0000 C   0  0  0  0  0  0  0  0  0  0  0  0
    2.6400    3.7862    0.0000 C   0  0  0  0  0  0  0  0  0  0  0  0
    3.5962    2.7243    0.0000 C   0  0  0  0  0  0  0  0  0  0  0  0
    4.3808    2.4693    0.0000 N   0  0  0  0  0  0  0  0  0  0  0  0
    0.1190    6.3001    0.0000 C   0  0  0  0  0  0  0  0  0  0  0  0
   -0.3659    6.9676    0.0000 F   0  0  0  0  0  0  0  0  0  0  0  0
    0.7865    6.7851    0.0000 F   0  0  0  0  0  0  0  0  0  0  0  0
   -0.5484    5.8152    0.0000 F   0  0  0  0  0  0  0  0  0  0  0  0
   -1.8414    1.0632    0.0000 C   0  0  0  0  0  0  0  0  0  0  0  0
   -2.5559    0.6507    0.0000 C   0  0  0  0  0  0  0  0  0  0  0  0
   -3.2704    1.0632    0.0000 C   0  0  0  0  0  0  0  0  0  0  0  0
   -3.2704    1.8882    0.0000 C   0  0  0  0  0  0  0  0  0  0  0  0
   -2.5559    2.3007    0.0000 C   0  0  0  0  0  0  0  0  0  0  0  0
   -1.8414    1.8882    0.0000 C   0  0  0  0  0  0  0  0  0  0  0  0
   -2.5559    3.1257    0.0000 C   0  0  0  0  0  0  0  0  0  0  0  0
   -2.5559    3.9507    0.0000 N   0  0  0  0  0  0  0  0  0  0  0  0
  1  2  1  0  0  0  0
  2  3  1  0  0  0  0
  1  3  1  0  0  0  0
  3  4  1  0  0  0  0
  4  5  1  0  0  0  0
  6  5  1  6  0  0  0
  6  7  1  0  0  0  0
  7  8  4  0  0  0  0
  8  9  4  0  0  0  0
  9 10  4  0  0  0  0
 10 11  4  0  0  0  0
 11 12  4  0  0  0  0
  7 12  4  0  0  0  0
 10 13  1  0  0  0  0
  9 14  1  0  0  0  0
 14 15  1  0  0  0  0
 15 16  2  0  0  0  0
 15 17  1  0  0  0  0
 17 18  4  0  0  0  0
 18 19  4  0  0  0  0
 19 20  4  0  0  0  0
 20 21  4  0  0  0  0
 17 21  4  0  0  0  0
 21 22  1  0  0  0  0
 22 23  4  0  0  0  0
 23 24  4  0  0  0  0
 24 25  4  0  0  0  0
 25 26  4  0  0  0  0
 26 27  4  0  0  0  0
 22 27  4  0  0  0  0
 26 28  1  0  0  0  0
 28 29  1  0  0  0  0
 19 30  1  0  0  0  0
 30 31  1  0  0  0  0
 30 32  1  0  0  0  0
 30 33  1  0  0  0  0
  6 34  1  0  0  0  0
 34 35  4  0  0  0  0
 35 36  4  0  0  0  0
 36 37  4  0  0  0  0
 37 38  4  0  0  0  0
 38 39  4  0  0  0  0
 34 39  4  0  0  0  0
 38 40  1  0  0  0  0
 40 41  3  0  0  0  0
M  END
>  <ID>
5430

>  <PREFERRED_NAME>
berotralstat

>  <CAS_RN>
1809010-50-1

>  <SYNONYMS>
berotralstat
berotralstat hydrochloride
BCX7353
orladeyo

>  <URL>
http://drugcentral.org/drugcard/5430/view

$$$$
