betamethasone butyrate propionate
  -INDIGO-06102310562D

 37 40  0  0  1  0  0  0  0  0999 V2000
    4.9691    1.7201    0.0000 C   0  0  0  0  0  0  0  0  0  0  0  0
    4.4842    1.0527    0.0000 C   0  0  0  0  0  0  0  0  0  0  0  0
    4.8197    0.2990    0.0000 C   0  0  0  0  0  0  0  0  0  0  0  0
    4.3348   -0.3684    0.0000 C   0  0  0  0  0  0  0  0  0  0  0  0
    3.5811   -0.0329    0.0000 O   0  0  0  0  0  0  0  0  0  0  0  0
    4.6704   -1.1221    0.0000 O   0  0  0  0  0  0  0  0  0  0  0  0
    4.1854   -1.7895    0.0000 C   0  0  2  0  0  0  0  0  0  0  0  0
    3.8499   -2.5432    0.0000 C   0  0  1  0  0  0  0  0  0  0  0  0
    4.2624   -3.2577    0.0000 C   0  0  0  0  0  0  0  0  0  0  0  0
    3.0294   -2.4570    0.0000 C   0  0  0  0  0  0  0  0  0  0  0  0
    2.8579   -1.6500    0.0000 C   0  0  1  0  0  0  0  0  0  0  0  0
    2.1434   -1.2375    0.0000 C   0  0  2  0  0  0  0  0  0  0  0  0
    1.4289   -1.6500    0.0000 C   0  0  0  0  0  0  0  0  0  0  0  0
    0.7145   -1.2375    0.0000 C   0  0  0  0  0  0  0  0  0  0  0  0
    0.7145   -0.4125    0.0000 C   0  0  0  0  0  0  0  0  0  0  0  0
    0.0000    0.0000    0.0000 C   0  0  0  0  0  0  0  0  0  0  0  0
    0.0000    0.8250    0.0000 C   0  0  0  0  0  0  0  0  0  0  0  0
   -0.7145    1.2375    0.0000 O   0  0  0  0  0  0  0  0  0  0  0  0
    0.7145    1.2375    0.0000 C   0  0  0  0  0  0  0  0  0  0  0  0
    1.4289    0.8250    0.0000 C   0  0  0  0  0  0  0  0  0  0  0  0
    1.4289    0.0000    0.0000 C   0  0  1  0  0  0  0  0  0  0  0  0
    2.1434    0.4125    0.0000 C   0  0  0  0  0  0  0  0  0  0  0  0
    2.1434   -0.4125    0.0000 C   0  0  2  0  0  0  0  0  0  0  0  0
    2.6283    0.2549    0.0000 F   0  0  0  0  0  0  0  0  0  0  0  0
    2.8579    0.0000    0.0000 C   0  0  1  0  0  0  0  0  0  0  0  0
    2.8579    0.8250    0.0000 O   0  0  0  0  0  0  0  0  0  0  0  0
    3.5724   -0.4125    0.0000 C   0  0  0  0  0  0  0  0  0  0  0  0
    3.5724   -1.2375    0.0000 C   0  0  2  0  0  0  0  0  0  0  0  0
    4.3260   -0.9019    0.0000 C   0  0  0  0  0  0  0  0  0  0  0  0
    4.8999   -2.2020    0.0000 C   0  0  0  0  0  0  0  0  0  0  0  0
    4.8999   -3.0270    0.0000 O   0  0  0  0  0  0  0  0  0  0  0  0
    5.6144   -1.7895    0.0000 C   0  0  0  0  0  0  0  0  0  0  0  0
    6.3289   -2.2020    0.0000 O   0  0  0  0  0  0  0  0  0  0  0  0
    7.0433   -1.7895    0.0000 C   0  0  0  0  0  0  0  0  0  0  0  0
    7.0433   -0.9645    0.0000 O   0  0  0  0  0  0  0  0  0  0  0  0
    7.7578   -2.2020    0.0000 C   0  0  0  0  0  0  0  0  0  0  0  0
    8.4723   -1.7895    0.0000 C   0  0  0  0  0  0  0  0  0  0  0  0
  1  2  1  0  0  0  0
  2  3  1  0  0  0  0
  3  4  1  0  0  0  0
  4  5  2  0  0  0  0
  4  6  1  0  0  0  0
  7  6  1  6  0  0  0
  7  8  1  0  0  0  0
  8  9  1  1  0  0  0
  8 10  1  0  0  0  0
 11 10  1  1  0  0  0
 11 12  1  0  0  0  0
 12 13  1  6  0  0  0
 13 14  1  0  0  0  0
 14 15  1  0  0  0  0
 15 16  2  0  0  0  0
 16 17  1  0  0  0  0
 17 18  2  0  0  0  0
 17 19  1  0  0  0  0
 19 20  2  0  0  0  0
 20 21  1  0  0  0  0
 15 21  1  0  0  0  0
 21 22  1  1  0  0  0
 21 23  1  0  0  0  0
 12 23  1  0  0  0  0
 23 24  1  6  0  0  0
 23 25  1  0  0  0  0
 25 26  1  1  0  0  0
 25 27  1  0  0  0  0
 27 28  1  0  0  0  0
  7 28  1  0  0  0  0
 11 28  1  0  0  0  0
 28 29  1  1  0  0  0
  7 30  1  1  0  0  0
 30 31  2  0  0  0  0
 30 32  1  0  0  0  0
 32 33  1  0  0  0  0
 33 34  1  0  0  0  0
 34 35  2  0  0  0  0
 34 36  1  0  0  0  0
 36 37  1  0  0  0  0
M  END
>  <ID>
352

>  <PREFERRED_NAME>
betamethasone butyrate propionate

>  <CAS_RN>
5534-02-1

>  <SYNONYMS>
betamethasone butyrate propionate
antebate

>  <URL>
http://drugcentral.org/drugcard/352/view

$$$$
