beta-aminopropionitrile
  -INDIGO-06102311232D

  5  4  0  0  0  0  0  0  0  0999 V2000
    2.8875   -0.7145    0.0000 N   0  0  0  0  0  0  0  0  0  0  0  0
    2.0625   -0.7145    0.0000 C   0  0  0  0  0  0  0  0  0  0  0  0
    1.6500    0.0000    0.0000 C   0  0  0  0  0  0  0  0  0  0  0  0
    0.8250    0.0000    0.0000 C   0  0  0  0  0  0  0  0  0  0  0  0
    0.0000    0.0000    0.0000 N   0  0  0  0  0  0  0  0  0  0  0  0
  1  2  1  0  0  0  0
  2  3  1  0  0  0  0
  3  4  1  0  0  0  0
  4  5  3  0  0  0  0
M  END
>  <ID>
5607

>  <PREFERRED_NAME>
beta-aminopropionitrile

>  <CAS_RN>
151-18-8

>  <SYNONYMS>
beta-aminopropionitrile
3-aminopropionitrile

>  <URL>
http://drugcentral.org/drugcard/5607/view

$$$$
