betoxycaine
  -INDIGO-06102311082D

 25 25  0  0  0  0  0  0  0  0999 V2000
   -4.4377    5.0371    0.0000 C   0  0  0  0  0  0  0  0  0  0  0  0
   -3.8432    4.4650    0.0000 C   0  0  0  0  0  0  0  0  0  0  0  0
   -3.0505    4.6939    0.0000 C   0  0  0  0  0  0  0  0  0  0  0  0
   -2.4561    4.1218    0.0000 C   0  0  0  0  0  0  0  0  0  0  0  0
   -1.6634    4.3506    0.0000 O   0  0  0  0  0  0  0  0  0  0  0  0
   -1.0690    3.7786    0.0000 C   0  0  0  0  0  0  0  0  0  0  0  0
   -0.2763    4.0074    0.0000 C   0  0  0  0  0  0  0  0  0  0  0  0
   -0.0782    4.8083    0.0000 N   0  0  0  0  0  0  0  0  0  0  0  0
    0.3182    3.4354    0.0000 C   0  0  0  0  0  0  0  0  0  0  0  0
    0.1200    2.6345    0.0000 C   0  0  0  0  0  0  0  0  0  0  0  0
   -0.6726    2.4057    0.0000 C   0  0  0  0  0  0  0  0  0  0  0  0
   -1.2671    2.9778    0.0000 C   0  0  0  0  0  0  0  0  0  0  0  0
    0.7145    2.0625    0.0000 C   0  0  0  0  0  0  0  0  0  0  0  0
    0.5163    1.2617    0.0000 O   0  0  0  0  0  0  0  0  0  0  0  0
    1.5071    2.2913    0.0000 O   0  0  0  0  0  0  0  0  0  0  0  0
    2.1016    1.7193    0.0000 C   0  0  0  0  0  0  0  0  0  0  0  0
    2.8942    1.9481    0.0000 C   0  0  0  0  0  0  0  0  0  0  0  0
    3.4887    1.3761    0.0000 O   0  0  0  0  0  0  0  0  0  0  0  0
    4.2813    1.6049    0.0000 C   0  0  0  0  0  0  0  0  0  0  0  0
    4.8758    1.0328    0.0000 C   0  0  0  0  0  0  0  0  0  0  0  0
    5.6684    1.2617    0.0000 N   0  0  0  0  0  0  0  0  0  0  0  0
    6.2629    0.6896    0.0000 C   0  0  0  0  0  0  0  0  0  0  0  0
    7.0555    0.9184    0.0000 C   0  0  0  0  0  0  0  0  0  0  0  0
    5.8666    2.0625    0.0000 C   0  0  0  0  0  0  0  0  0  0  0  0
    6.6592    2.2913    0.0000 C   0  0  0  0  0  0  0  0  0  0  0  0
  1  2  1  0  0  0  0
  2  3  1  0  0  0  0
  3  4  1  0  0  0  0
  4  5  1  0  0  0  0
  5  6  1  0  0  0  0
  6  7  4  0  0  0  0
  7  8  1  0  0  0  0
  7  9  4  0  0  0  0
  9 10  4  0  0  0  0
 10 11  4  0  0  0  0
 11 12  4  0  0  0  0
  6 12  4  0  0  0  0
 10 13  1  0  0  0  0
 13 14  2  0  0  0  0
 13 15  1  0  0  0  0
 15 16  1  0  0  0  0
 16 17  1  0  0  0  0
 17 18  1  0  0  0  0
 18 19  1  0  0  0  0
 19 20  1  0  0  0  0
 20 21  1  0  0  0  0
 21 22  1  0  0  0  0
 22 23  1  0  0  0  0
 21 24  1  0  0  0  0
 24 25  1  0  0  0  0
M  END
>  <ID>
3023

>  <PREFERRED_NAME>
betoxycaine

>  <CAS_RN>
3818-62-0

>  <SYNONYMS>
betoxycaine
bethoxycaine monohydrochloride
betoxycaine hydrochloride
bethoxycaine
betoxycaine HCl

>  <URL>
http://drugcentral.org/drugcard/3023/view

$$$$
