bevonium
  -INDIGO-06102311082D

 26 28  0  0  0  0  0  0  0  0999 V2000
   -1.6427   -1.9239    0.0000 C   0  0  0  0  0  0  0  0  0  0  0  0
   -2.1730   -2.5559    0.0000 N   0  0  0  0  0  0  0  0  0  0  0  0
   -2.7033   -1.9239    0.0000 C   0  0  0  0  0  0  0  0  0  0  0  0
   -1.4586   -2.9684    0.0000 C   0  0  0  0  0  0  0  0  0  0  0  0
   -1.4586   -3.7934    0.0000 C   0  0  0  0  0  0  0  0  0  0  0  0
   -2.1730   -4.2059    0.0000 C   0  0  0  0  0  0  0  0  0  0  0  0
   -2.8875   -3.7934    0.0000 C   0  0  0  0  0  0  0  0  0  0  0  0
   -2.8875   -2.9684    0.0000 C   0  0  0  0  0  0  0  0  0  0  0  0
   -3.6020   -2.5559    0.0000 C   0  0  0  0  0  0  0  0  0  0  0  0
   -3.6020   -1.7309    0.0000 O   0  0  0  0  0  0  0  0  0  0  0  0
   -4.3164   -1.3184    0.0000 C   0  0  0  0  0  0  0  0  0  0  0  0
   -5.0309   -1.7309    0.0000 O   0  0  0  0  0  0  0  0  0  0  0  0
   -4.3164   -0.4934    0.0000 C   0  0  0  0  0  0  0  0  0  0  0  0
   -3.4914   -0.4934    0.0000 O   0  0  0  0  0  0  0  0  0  0  0  0
   -4.3164    0.3316    0.0000 C   0  0  0  0  0  0  0  0  0  0  0  0
   -5.0309    0.7441    0.0000 C   0  0  0  0  0  0  0  0  0  0  0  0
   -5.0309    1.5691    0.0000 C   0  0  0  0  0  0  0  0  0  0  0  0
   -4.3164    1.9816    0.0000 C   0  0  0  0  0  0  0  0  0  0  0  0
   -3.6020    1.5691    0.0000 C   0  0  0  0  0  0  0  0  0  0  0  0
   -3.6020    0.7441    0.0000 C   0  0  0  0  0  0  0  0  0  0  0  0
   -5.1414   -0.4934    0.0000 C   0  0  0  0  0  0  0  0  0  0  0  0
   -5.5539   -1.2079    0.0000 C   0  0  0  0  0  0  0  0  0  0  0  0
   -6.3789   -1.2079    0.0000 C   0  0  0  0  0  0  0  0  0  0  0  0
   -6.7914   -0.4934    0.0000 C   0  0  0  0  0  0  0  0  0  0  0  0
   -6.3789    0.2211    0.0000 C   0  0  0  0  0  0  0  0  0  0  0  0
   -5.5539    0.2211    0.0000 C   0  0  0  0  0  0  0  0  0  0  0  0
  1  2  1  0  0  0  0
  2  3  1  0  0  0  0
  2  4  1  0  0  0  0
  4  5  1  0  0  0  0
  5  6  1  0  0  0  0
  6  7  1  0  0  0  0
  7  8  1  0  0  0  0
  2  8  1  0  0  0  0
  8  9  1  0  0  0  0
  9 10  1  0  0  0  0
 10 11  1  0  0  0  0
 11 12  2  0  0  0  0
 11 13  1  0  0  0  0
 13 14  1  0  0  0  0
 13 15  1  0  0  0  0
 15 16  4  0  0  0  0
 16 17  4  0  0  0  0
 17 18  4  0  0  0  0
 18 19  4  0  0  0  0
 19 20  4  0  0  0  0
 15 20  4  0  0  0  0
 13 21  1  0  0  0  0
 21 22  4  0  0  0  0
 22 23  4  0  0  0  0
 23 24  4  0  0  0  0
 24 25  4  0  0  0  0
 25 26  4  0  0  0  0
 21 26  4  0  0  0  0
M  CHG  1   2   1
M  END
>  <ID>
3024

>  <PREFERRED_NAME>
bevonium

>  <CAS_RN>
33371-53-8

>  <SYNONYMS>
bevonium
piribenzil
bevonium metilsulfate
bevonium methyl sulfate
bevonium methylsulfate
piribenzil methyl sulfate

>  <URL>
http://drugcentral.org/drugcard/3024/view

$$$$
