bictegravir
  -INDIGO-06102311202D

 32 36  0  0  1  0  0  0  0  0999 V2000
   -2.0370    2.0591    0.0000 O   0  0  0  0  0  0  0  0  0  0  0  0
   -2.0902    1.2358    0.0000 C   0  0  0  0  0  0  0  0  0  0  0  0
   -1.4038    0.7781    0.0000 C   0  0  0  0  0  0  0  0  0  0  0  0
   -1.4570   -0.0452    0.0000 N   0  0  0  0  0  0  0  0  0  0  0  0
   -0.7706   -0.5029    0.0000 C   0  0  0  0  0  0  0  0  0  0  0  0
   -0.0311   -0.1373    0.0000 C   0  0  1  0  0  0  0  0  0  0  0  0
    0.5795   -0.6922    0.0000 O   0  0  0  0  0  0  0  0  0  0  0  0
    1.3939   -0.5609    0.0000 C   0  0  2  0  0  0  0  0  0  0  0  0
    1.7991    0.1578    0.0000 C   0  0  0  0  0  0  0  0  0  0  0  0
    1.4898    0.9226    0.0000 C   0  0  0  0  0  0  0  0  0  0  0  0
    0.6990    1.1577    0.0000 C   0  0  1  0  0  0  0  0  0  0  0  0
    1.2613    0.3853    0.0000 C   0  0  0  0  0  0  0  0  0  0  0  0
    0.0221    0.6860    0.0000 N   0  0  0  0  0  0  0  0  0  0  0  0
   -0.6643    1.1437    0.0000 C   0  0  0  0  0  0  0  0  0  0  0  0
   -0.6111    1.9669    0.0000 O   0  0  0  0  0  0  0  0  0  0  0  0
   -2.1966   -0.4108    0.0000 C   0  0  0  0  0  0  0  0  0  0  0  0
   -2.8830    0.0469    0.0000 C   0  0  0  0  0  0  0  0  0  0  0  0
   -3.6226   -0.3187    0.0000 C   0  0  0  0  0  0  0  0  0  0  0  0
   -3.6758   -1.1419    0.0000 O   0  0  0  0  0  0  0  0  0  0  0  0
   -4.3090    0.1390    0.0000 N   0  0  0  0  0  0  0  0  0  0  0  0
   -5.0485   -0.2265    0.0000 C   0  0  0  0  0  0  0  0  0  0  0  0
   -5.7349    0.2312    0.0000 C   0  0  0  0  0  0  0  0  0  0  0  0
   -6.4745   -0.1344    0.0000 C   0  0  0  0  0  0  0  0  0  0  0  0
   -6.5277   -0.9577    0.0000 F   0  0  0  0  0  0  0  0  0  0  0  0
   -7.1609    0.3233    0.0000 C   0  0  0  0  0  0  0  0  0  0  0  0
   -7.1077    1.1466    0.0000 C   0  0  0  0  0  0  0  0  0  0  0  0
   -7.7941    1.6043    0.0000 F   0  0  0  0  0  0  0  0  0  0  0  0
   -6.3681    1.5122    0.0000 C   0  0  0  0  0  0  0  0  0  0  0  0
   -5.6817    1.0545    0.0000 C   0  0  0  0  0  0  0  0  0  0  0  0
   -4.9422    1.4200    0.0000 F   0  0  0  0  0  0  0  0  0  0  0  0
   -2.8298    0.8702    0.0000 C   0  0  0  0  0  0  0  0  0  0  0  0
   -3.5162    1.3279    0.0000 O   0  0  0  0  0  0  0  0  0  0  0  0
  1  2  1  0  0  0  0
  2  3  2  0  0  0  0
  3  4  1  0  0  0  0
  4  5  1  0  0  0  0
  5  6  1  0  0  0  0
  6  7  1  0  0  0  0
  7  8  1  0  0  0  0
  8  9  1  0  0  0  0
  9 10  1  0  0  0  0
 10 11  1  0  0  0  0
 11 12  1  6  0  0  0
  8 12  1  6  0  0  0
 11 13  1  0  0  0  0
  6 13  1  6  0  0  0
 13 14  1  0  0  0  0
  3 14  1  0  0  0  0
 14 15  2  0  0  0  0
  4 16  1  0  0  0  0
 16 17  2  0  0  0  0
 17 18  1  0  0  0  0
 18 19  2  0  0  0  0
 18 20  1  0  0  0  0
 20 21  1  0  0  0  0
 21 22  1  0  0  0  0
 22 23  4  0  0  0  0
 23 24  1  0  0  0  0
 23 25  4  0  0  0  0
 25 26  4  0  0  0  0
 26 27  1  0  0  0  0
 26 28  4  0  0  0  0
 28 29  4  0  0  0  0
 22 29  4  0  0  0  0
 29 30  1  0  0  0  0
 17 31  1  0  0  0  0
  2 31  1  0  0  0  0
 31 32  2  0  0  0  0
M  END
>  <ID>
5274

>  <PREFERRED_NAME>
bictegravir

>  <CAS_RN>
1611493-60-7

>  <SYNONYMS>
bictegravir
bictegravir sodium
GS-9883
GS-9883-01

>  <URL>
http://drugcentral.org/drugcard/5274/view

$$$$
