bidisomide
  -INDIGO-06102310562D

 28 29  0  0  0  0  0  0  0  0999 V2000
    1.4586    5.6645    0.0000 C   0  0  0  0  0  0  0  0  0  0  0  0
    1.4586    4.8395    0.0000 C   0  0  0  0  0  0  0  0  0  0  0  0
    0.7441    4.4270    0.0000 C   0  0  0  0  0  0  0  0  0  0  0  0
    2.1730    4.4270    0.0000 N   0  0  0  0  0  0  0  0  0  0  0  0
    2.1730    3.6020    0.0000 C   0  0  0  0  0  0  0  0  0  0  0  0
    2.8875    3.1895    0.0000 C   0  0  0  0  0  0  0  0  0  0  0  0
    2.8875    2.3645    0.0000 C   0  0  0  0  0  0  0  0  0  0  0  0
    2.8875    1.5395    0.0000 C   0  0  0  0  0  0  0  0  0  0  0  0
    3.6020    1.1270    0.0000 C   0  0  0  0  0  0  0  0  0  0  0  0
    3.6020    0.3020    0.0000 N   0  0  0  0  0  0  0  0  0  0  0  0
    4.3164   -0.1105    0.0000 C   0  0  0  0  0  0  0  0  0  0  0  0
    4.3164   -0.9355    0.0000 C   0  0  0  0  0  0  0  0  0  0  0  0
    3.6020   -1.3480    0.0000 C   0  0  0  0  0  0  0  0  0  0  0  0
    2.8875   -0.9355    0.0000 C   0  0  0  0  0  0  0  0  0  0  0  0
    2.8875   -0.1105    0.0000 C   0  0  0  0  0  0  0  0  0  0  0  0
    2.0625    2.3645    0.0000 C   0  0  0  0  0  0  0  0  0  0  0  0
    1.6500    1.6500    0.0000 N   0  0  0  0  0  0  0  0  0  0  0  0
    1.6500    3.0789    0.0000 O   0  0  0  0  0  0  0  0  0  0  0  0
    3.7125    2.3645    0.0000 C   0  0  0  0  0  0  0  0  0  0  0  0
    4.1250    3.0789    0.0000 C   0  0  0  0  0  0  0  0  0  0  0  0
    3.7125    3.7934    0.0000 Cl  0  0  0  0  0  0  0  0  0  0  0  0
    4.9500    3.0789    0.0000 C   0  0  0  0  0  0  0  0  0  0  0  0
    5.3625    2.3645    0.0000 C   0  0  0  0  0  0  0  0  0  0  0  0
    4.9500    1.6500    0.0000 C   0  0  0  0  0  0  0  0  0  0  0  0
    4.1250    1.6500    0.0000 C   0  0  0  0  0  0  0  0  0  0  0  0
    2.8875    4.8395    0.0000 C   0  0  0  0  0  0  0  0  0  0  0  0
    3.6020    4.4270    0.0000 C   0  0  0  0  0  0  0  0  0  0  0  0
    2.8875    5.6645    0.0000 O   0  0  0  0  0  0  0  0  0  0  0  0
  1  2  1  0  0  0  0
  2  3  1  0  0  0  0
  2  4  1  0  0  0  0
  4  5  1  0  0  0  0
  5  6  1  0  0  0  0
  6  7  1  0  0  0  0
  7  8  1  0  0  0  0
  8  9  1  0  0  0  0
  9 10  1  0  0  0  0
 10 11  1  0  0  0  0
 11 12  1  0  0  0  0
 12 13  1  0  0  0  0
 13 14  1  0  0  0  0
 14 15  1  0  0  0  0
 10 15  1  0  0  0  0
  7 16  1  0  0  0  0
 16 17  1  0  0  0  0
 16 18  2  0  0  0  0
  7 19  1  0  0  0  0
 19 20  4  0  0  0  0
 20 21  1  0  0  0  0
 20 22  4  0  0  0  0
 22 23  4  0  0  0  0
 23 24  4  0  0  0  0
 24 25  4  0  0  0  0
 19 25  4  0  0  0  0
  4 26  1  0  0  0  0
 26 27  1  0  0  0  0
 26 28  2  0  0  0  0
M  END
>  <ID>
368

>  <PREFERRED_NAME>
bidisomide

>  <CAS_RN>
116078-65-0

>  <SYNONYMS>
bidisomide
SC 40230
SC-40230

>  <URL>
http://drugcentral.org/drugcard/368/view

$$$$
