blonanserin
  -INDIGO-06102310562D

 27 30  0  0  0  0  0  0  0  0999 V2000
   -3.7859   -3.6844    0.0000 C   0  0  0  0  0  0  0  0  0  0  0  0
   -3.7859   -2.8594    0.0000 C   0  0  0  0  0  0  0  0  0  0  0  0
   -3.0714   -2.4469    0.0000 N   0  0  0  0  0  0  0  0  0  0  0  0
   -3.0714   -1.6219    0.0000 C   0  0  0  0  0  0  0  0  0  0  0  0
   -2.3569   -1.2094    0.0000 C   0  0  0  0  0  0  0  0  0  0  0  0
   -1.6425   -1.6219    0.0000 N   0  0  0  0  0  0  0  0  0  0  0  0
   -1.6425   -2.4469    0.0000 C   0  0  0  0  0  0  0  0  0  0  0  0
   -2.3569   -2.8594    0.0000 C   0  0  0  0  0  0  0  0  0  0  0  0
   -0.9280   -1.2094    0.0000 C   0  0  0  0  0  0  0  0  0  0  0  0
   -0.2135   -1.6219    0.0000 N   0  0  0  0  0  0  0  0  0  0  0  0
    0.5009   -1.2094    0.0000 C   0  0  0  0  0  0  0  0  0  0  0  0
    0.5009   -0.3844    0.0000 C   0  0  0  0  0  0  0  0  0  0  0  0
    1.0843    0.1990    0.0000 C   0  0  0  0  0  0  0  0  0  0  0  0
    1.9093    0.1990    0.0000 C   0  0  0  0  0  0  0  0  0  0  0  0
    2.4927   -0.3844    0.0000 C   0  0  0  0  0  0  0  0  0  0  0  0
    2.4927   -1.2094    0.0000 C   0  0  0  0  0  0  0  0  0  0  0  0
    1.9093   -1.7928    0.0000 C   0  0  0  0  0  0  0  0  0  0  0  0
    1.0843   -1.7928    0.0000 C   0  0  0  0  0  0  0  0  0  0  0  0
   -0.2135    0.0281    0.0000 C   0  0  0  0  0  0  0  0  0  0  0  0
   -0.9280   -0.3844    0.0000 C   0  0  0  0  0  0  0  0  0  0  0  0
   -0.2135    0.8531    0.0000 C   0  0  0  0  0  0  0  0  0  0  0  0
   -0.9280    1.2656    0.0000 C   0  0  0  0  0  0  0  0  0  0  0  0
   -0.9280    2.0906    0.0000 C   0  0  0  0  0  0  0  0  0  0  0  0
   -0.2135    2.5031    0.0000 C   0  0  0  0  0  0  0  0  0  0  0  0
   -0.2135    3.3281    0.0000 F   0  0  0  0  0  0  0  0  0  0  0  0
    0.5009    2.0906    0.0000 C   0  0  0  0  0  0  0  0  0  0  0  0
    0.5009    1.2656    0.0000 C   0  0  0  0  0  0  0  0  0  0  0  0
  1  2  1  0  0  0  0
  2  3  1  0  0  0  0
  3  4  1  0  0  0  0
  4  5  1  0  0  0  0
  5  6  1  0  0  0  0
  6  7  1  0  0  0  0
  7  8  1  0  0  0  0
  3  8  1  0  0  0  0
  6  9  1  0  0  0  0
  9 10  4  0  0  0  0
 10 11  4  0  0  0  0
 11 12  4  0  0  0  0
 12 13  1  0  0  0  0
 13 14  1  0  0  0  0
 14 15  1  0  0  0  0
 15 16  1  0  0  0  0
 16 17  1  0  0  0  0
 17 18  1  0  0  0  0
 11 18  1  0  0  0  0
 12 19  4  0  0  0  0
 19 20  4  0  0  0  0
  9 20  4  0  0  0  0
 19 21  1  0  0  0  0
 21 22  4  0  0  0  0
 22 23  4  0  0  0  0
 23 24  4  0  0  0  0
 24 25  1  0  0  0  0
 24 26  4  0  0  0  0
 26 27  4  0  0  0  0
 21 27  4  0  0  0  0
M  END
>  <ID>
388

>  <PREFERRED_NAME>
blonanserin

>  <CAS_RN>
132810-10-7

>  <SYNONYMS>
blonanserin
lonasen
AD-5423

>  <URL>
http://drugcentral.org/drugcard/388/view

$$$$
