boric acid
  -INDIGO-06102311082D

  4  3  0  0  0  0  0  0  0  0999 V2000
    1.2375    0.7145    0.0000 O   0  0  0  0  0  0  0  0  0  0  0  0
    0.8250    0.0000    0.0000 B   0  0  0  0  0  0  0  0  0  0  0  0
    1.2375   -0.7145    0.0000 O   0  0  0  0  0  0  0  0  0  0  0  0
    0.0000    0.0000    0.0000 O   0  0  0  0  0  0  0  0  0  0  0  0
  1  2  1  0  0  0  0
  2  3  1  0  0  0  0
  2  4  1  0  0  0  0
M  END
>  <ID>
3035

>  <PREFERRED_NAME>
boric acid

>  <CAS_RN>
10043-35-3

>  <SYNONYMS>
boric acid
boracic acid
trihydroxyborane
orthoboric acid
boron oxide hydroxide

>  <URL>
http://drugcentral.org/drugcard/3035/view

$$$$
