brexpiprazole
  -INDIGO-06102311182D

 31 35  0  0  0  0  0  0  0  0999 V2000
   16.2128   -6.3146    0.0000 O   0  0  0  0  0  0  0  0  0  0  0  0
   15.4983   -6.7271    0.0000 C   0  0  0  0  0  0  0  0  0  0  0  0
   14.7838   -6.3146    0.0000 N   0  0  0  0  0  0  0  0  0  0  0  0
   14.0693   -6.7271    0.0000 C   0  0  0  0  0  0  0  0  0  0  0  0
   14.0693   -7.5521    0.0000 C   0  0  0  0  0  0  0  0  0  0  0  0
   14.7838   -7.9646    0.0000 C   0  0  0  0  0  0  0  0  0  0  0  0
   15.4983   -7.5521    0.0000 C   0  0  0  0  0  0  0  0  0  0  0  0
   13.3549   -7.9646    0.0000 C   0  0  0  0  0  0  0  0  0  0  0  0
   12.6404   -7.5521    0.0000 C   0  0  0  0  0  0  0  0  0  0  0  0
   12.6404   -6.7271    0.0000 C   0  0  0  0  0  0  0  0  0  0  0  0
   11.9259   -6.3146    0.0000 O   0  0  0  0  0  0  0  0  0  0  0  0
   11.9259   -5.4896    0.0000 C   0  0  0  0  0  0  0  0  0  0  0  0
   11.2115   -5.0771    0.0000 C   0  0  0  0  0  0  0  0  0  0  0  0
   11.2115   -4.2521    0.0000 C   0  0  0  0  0  0  0  0  0  0  0  0
   10.4970   -3.8396    0.0000 C   0  0  0  0  0  0  0  0  0  0  0  0
   10.4970   -3.0146    0.0000 N   0  0  0  0  0  0  0  0  0  0  0  0
    9.7825   -2.6021    0.0000 C   0  0  0  0  0  0  0  0  0  0  0  0
    9.7825   -1.7771    0.0000 C   0  0  0  0  0  0  0  0  0  0  0  0
   10.4970   -1.3646    0.0000 N   0  0  0  0  0  0  0  0  0  0  0  0
   11.2115   -1.7771    0.0000 C   0  0  0  0  0  0  0  0  0  0  0  0
   11.2115   -2.6021    0.0000 C   0  0  0  0  0  0  0  0  0  0  0  0
   10.4970   -0.5396    0.0000 C   0  0  0  0  0  0  0  0  0  0  0  0
    9.7825   -0.1271    0.0000 C   0  0  0  0  0  0  0  0  0  0  0  0
    8.9979   -0.3820    0.0000 C   0  0  0  0  0  0  0  0  0  0  0  0
    8.5130    0.2854    0.0000 C   0  0  0  0  0  0  0  0  0  0  0  0
    8.9979    0.9529    0.0000 S   0  0  0  0  0  0  0  0  0  0  0  0
    9.7825    0.6979    0.0000 C   0  0  0  0  0  0  0  0  0  0  0  0
   10.4970    1.1104    0.0000 C   0  0  0  0  0  0  0  0  0  0  0  0
   11.2115    0.6979    0.0000 C   0  0  0  0  0  0  0  0  0  0  0  0
   11.2115   -0.1271    0.0000 C   0  0  0  0  0  0  0  0  0  0  0  0
   13.3549   -6.3146    0.0000 C   0  0  0  0  0  0  0  0  0  0  0  0
  1  2  2  0  0  0  0
  2  3  1  0  0  0  0
  3  4  1  0  0  0  0
  4  5  4  0  0  0  0
  5  6  1  0  0  0  0
  6  7  2  0  0  0  0
  2  7  1  0  0  0  0
  5  8  4  0  0  0  0
  8  9  4  0  0  0  0
  9 10  4  0  0  0  0
 10 11  1  0  0  0  0
 11 12  1  0  0  0  0
 12 13  1  0  0  0  0
 13 14  1  0  0  0  0
 14 15  1  0  0  0  0
 15 16  1  0  0  0  0
 16 17  1  0  0  0  0
 17 18  1  0  0  0  0
 18 19  1  0  0  0  0
 19 20  1  0  0  0  0
 20 21  1  0  0  0  0
 16 21  1  0  0  0  0
 19 22  1  0  0  0  0
 22 23  4  0  0  0  0
 23 24  4  0  0  0  0
 24 25  4  0  0  0  0
 25 26  4  0  0  0  0
 26 27  4  0  0  0  0
 23 27  4  0  0  0  0
 27 28  4  0  0  0  0
 28 29  4  0  0  0  0
 29 30  4  0  0  0  0
 22 30  4  0  0  0  0
 10 31  4  0  0  0  0
  4 31  4  0  0  0  0
M  END
>  <ID>
5014

>  <PREFERRED_NAME>
brexpiprazole

>  <CAS_RN>
913611-97-9

>  <SYNONYMS>
brexpiprazole
rexulti
OPC-34712
OPC 34712

>  <URL>
http://drugcentral.org/drugcard/5014/view

$$$$
