bromocriptine
  -INDIGO-06102310562D

 43 49  0  0  1  0  0  0  0  0999 V2000
    8.1760   -2.1479    0.0000 C   0  0  0  0  0  0  0  0  0  0  0  0
    8.3475   -1.3410    0.0000 C   0  0  0  0  0  0  0  0  0  0  0  0
    9.1321   -1.0860    0.0000 C   0  0  0  0  0  0  0  0  0  0  0  0
    7.7344   -0.7889    0.0000 C   0  0  0  0  0  0  0  0  0  0  0  0
    7.9059    0.0180    0.0000 C   0  0  2  0  0  0  0  0  0  0  0  0
    7.2929    0.5701    0.0000 N   0  0  0  0  0  0  0  0  0  0  0  0
    6.4724    0.4838    0.0000 C   0  0  0  0  0  0  0  0  0  0  0  0
    6.0599   -0.2306    0.0000 O   0  0  0  0  0  0  0  0  0  0  0  0
    6.1368    1.2375    0.0000 C   0  0  2  0  0  0  0  0  0  0  0  0
    5.4223    0.8250    0.0000 N   0  0  0  0  0  0  0  0  0  0  0  0
    4.7079    1.2375    0.0000 C   0  0  0  0  0  0  0  0  0  0  0  0
    4.7079    2.0625    0.0000 O   0  0  0  0  0  0  0  0  0  0  0  0
    3.9934    0.8250    0.0000 C   0  0  1  0  0  0  0  0  0  0  0  0
    3.9934    0.0000    0.0000 C   0  0  0  0  0  0  0  0  0  0  0  0
    3.2789   -0.4125    0.0000 N   0  0  0  0  0  0  0  0  0  0  0  0
    3.2789   -1.2375    0.0000 C   0  0  0  0  0  0  0  0  0  0  0  0
    2.5645    0.0000    0.0000 C   0  0  2  0  0  0  0  0  0  0  0  0
    1.8500   -0.4125    0.0000 C   0  0  0  0  0  0  0  0  0  0  0  0
    1.1355    0.0000    0.0000 C   0  0  0  0  0  0  0  0  0  0  0  0
    0.3509   -0.2549    0.0000 C   0  0  0  0  0  0  0  0  0  0  0  0
    0.0960   -1.0396    0.0000 Br  0  0  0  0  0  0  0  0  0  0  0  0
   -0.1340    0.4125    0.0000 N   0  0  0  0  0  0  0  0  0  0  0  0
    0.3509    1.0799    0.0000 C   0  0  0  0  0  0  0  0  0  0  0  0
    1.1355    0.8250    0.0000 C   0  0  0  0  0  0  0  0  0  0  0  0
    1.8500    1.2375    0.0000 C   0  0  0  0  0  0  0  0  0  0  0  0
    1.5771    2.1840    0.0000 C   0  0  0  0  0  0  0  0  0  0  0  0
    0.7925    2.4389    0.0000 C   0  0  0  0  0  0  0  0  0  0  0  0
    0.1794    1.8869    0.0000 C   0  0  0  0  0  0  0  0  0  0  0  0
    2.5645    0.8250    0.0000 C   0  0  0  0  0  0  0  0  0  0  0  0
    3.2789    1.2375    0.0000 C   0  0  0  0  0  0  0  0  0  0  0  0
    6.7499    1.7895    0.0000 O   0  0  0  0  0  0  0  0  0  0  0  0
    7.4644    1.3770    0.0000 C   0  0  2  0  0  0  0  0  0  0  0  0
    7.5506    2.1975    0.0000 O   0  0  0  0  0  0  0  0  0  0  0  0
    8.2490    1.6320    0.0000 C   0  0  2  0  0  0  0  0  0  0  0  0
    8.5846    2.3856    0.0000 C   0  0  0  0  0  0  0  0  0  0  0  0
    9.4050    2.2994    0.0000 C   0  0  0  0  0  0  0  0  0  0  0  0
    9.5766    1.4924    0.0000 C   0  0  0  0  0  0  0  0  0  0  0  0
    8.8621    1.0799    0.0000 N   0  0  0  0  0  0  0  0  0  0  0  0
    8.6906    0.2730    0.0000 C   0  0  0  0  0  0  0  0  0  0  0  0
    9.3037   -0.2791    0.0000 O   0  0  0  0  0  0  0  0  0  0  0  0
    5.6519    1.9049    0.0000 C   0  0  0  0  0  0  0  0  0  0  0  0
    5.9874    2.6586    0.0000 C   0  0  0  0  0  0  0  0  0  0  0  0
    4.9374    2.3174    0.0000 C   0  0  0  0  0  0  0  0  0  0  0  0
  1  2  1  0  0  0  0
  2  3  1  0  0  0  0
  2  4  1  0  0  0  0
  5  4  1  6  0  0  0
  5  6  1  0  0  0  0
  6  7  1  0  0  0  0
  7  8  2  0  0  0  0
  7  9  1  0  0  0  0
  9 10  1  6  0  0  0
 10 11  1  0  0  0  0
 11 12  2  0  0  0  0
 13 11  1  1  0  0  0
 13 14  1  0  0  0  0
 14 15  1  0  0  0  0
 15 16  1  0  0  0  0
 17 15  1  6  0  0  0
 17 18  1  0  0  0  0
 18 19  1  0  0  0  0
 19 20  4  0  0  0  0
 20 21  1  0  0  0  0
 20 22  4  0  0  0  0
 22 23  4  0  0  0  0
 23 24  4  0  0  0  0
 19 24  4  0  0  0  0
 24 25  4  0  0  0  0
 25 26  4  0  0  0  0
 26 27  4  0  0  0  0
 27 28  4  0  0  0  0
 23 28  4  0  0  0  0
 25 29  1  0  0  0  0
 17 29  1  0  0  0  0
 29 30  2  0  0  0  0
 13 30  1  0  0  0  0
  9 31  1  0  0  0  0
 31 32  1  0  0  0  0
  6 32  1  0  0  0  0
 32 33  1  6  0  0  0
 32 34  1  0  0  0  0
 34 35  1  0  0  0  0
 35 36  1  0  0  0  0
 36 37  1  0  0  0  0
 37 38  1  0  0  0  0
 34 38  1  6  0  0  0
 38 39  1  0  0  0  0
  5 39  1  0  0  0  0
 39 40  2  0  0  0  0
  9 41  1  1  0  0  0
 41 42  1  0  0  0  0
 41 43  1  0  0  0  0
M  STY  1   1 DAT
M  SLB  1   1   1
M  SAL   1  1  22
M  SDT   1 MRV_IMPLICIT_H
M  SDD   1     0.0000    0.0000    DA    ALL  1       1
M  SED   1 IMPL_H1
M  END
>  <ID>
403

>  <PREFERRED_NAME>
bromocriptine

>  <CAS_RN>
25614-03-3

>  <SYNONYMS>
bromocriptine
bromocriptin
bromocryptine
ergolactin
2-bromoergocriptine
bromocriptine mesylate
bromocriptine mesilate

>  <URL>
http://drugcentral.org/drugcard/403/view

$$$$
