brovincamine
  -INDIGO-06102310562D

 27 31  0  0  1  0  0  0  0  0999 V2000
   -0.7420   -2.2988    0.0000 C   0  0  0  0  0  0  0  0  0  0  0  0
    0.0817   -2.2516    0.0000 C   0  0  0  0  0  0  0  0  0  0  0  0
    0.4527   -1.5147    0.0000 C   0  0  1  0  0  0  0  0  0  0  0  0
   -0.3710   -1.5619    0.0000 C   0  0  0  0  0  0  0  0  0  0  0  0
   -0.8237   -0.8721    0.0000 C   0  0  0  0  0  0  0  0  0  0  0  0
   -0.4527   -0.1353    0.0000 C   0  0  0  0  0  0  0  0  0  0  0  0
    0.3710   -0.0881    0.0000 N   0  0  0  0  0  0  0  0  0  0  0  0
    0.7420    0.6488    0.0000 C   0  0  0  0  0  0  0  0  0  0  0  0
    1.5656    0.6959    0.0000 C   0  0  0  0  0  0  0  0  0  0  0  0
    2.0183    0.0062    0.0000 C   0  0  0  0  0  0  0  0  0  0  0  0
    1.6473   -0.7307    0.0000 C   0  0  0  0  0  0  0  0  0  0  0  0
    0.8237   -0.7779    0.0000 C   0  0  2  0  0  0  0  0  0  0  0  0
    2.1000   -1.4204    0.0000 N   0  0  0  0  0  0  0  0  0  0  0  0
    2.8958   -1.2031    0.0000 C   0  0  0  0  0  0  0  0  0  0  0  0
    3.5899   -1.6491    0.0000 C   0  0  0  0  0  0  0  0  0  0  0  0
    4.3231   -1.2710    0.0000 C   0  0  0  0  0  0  0  0  0  0  0  0
    5.0172   -1.7170    0.0000 Br  0  0  0  0  0  0  0  0  0  0  0  0
    4.3623   -0.4469    0.0000 C   0  0  0  0  0  0  0  0  0  0  0  0
    3.6683   -0.0009    0.0000 C   0  0  0  0  0  0  0  0  0  0  0  0
    2.9350   -0.3790    0.0000 C   0  0  0  0  0  0  0  0  0  0  0  0
    1.7290   -2.1573    0.0000 C   0  0  2  0  0  0  0  0  0  0  0  0
    2.5191   -2.3947    0.0000 O   0  0  0  0  0  0  0  0  0  0  0  0
    0.9053   -2.2045    0.0000 C   0  0  0  0  0  0  0  0  0  0  0  0
    1.6324   -2.9766    0.0000 C   0  0  0  0  0  0  0  0  0  0  0  0
    0.8745   -3.3026    0.0000 O   0  0  0  0  0  0  0  0  0  0  0  0
    2.2936   -3.4700    0.0000 O   0  0  0  0  0  0  0  0  0  0  0  0
    2.1970   -4.2893    0.0000 C   0  0  0  0  0  0  0  0  0  0  0  0
  1  2  1  0  0  0  0
  3  2  1  1  0  0  0
  3  4  1  0  0  0  0
  4  5  1  0  0  0  0
  5  6  1  0  0  0  0
  6  7  1  0  0  0  0
  7  8  1  0  0  0  0
  8  9  1  0  0  0  0
  9 10  1  0  0  0  0
 10 11  4  0  0  0  0
 12 11  1  6  0  0  0
  3 12  1  0  0  0  0
  7 12  1  0  0  0  0
 11 13  4  0  0  0  0
 13 14  4  0  0  0  0
 14 15  4  0  0  0  0
 15 16  4  0  0  0  0
 16 17  1  0  0  0  0
 16 18  4  0  0  0  0
 18 19  4  0  0  0  0
 19 20  4  0  0  0  0
 10 20  4  0  0  0  0
 14 20  4  0  0  0  0
 13 21  1  0  0  0  0
 21 22  1  6  0  0  0
 21 23  1  0  0  0  0
  3 23  1  0  0  0  0
 21 24  1  1  0  0  0
 24 25  2  0  0  0  0
 24 26  1  0  0  0  0
 26 27  1  0  0  0  0
M  END
>  <ID>
411

>  <PREFERRED_NAME>
brovincamine

>  <CAS_RN>
57475-17-9

>  <SYNONYMS>
brovincamine
11-Bromovincamine
11-Brovincamine
cis-11-Bromovincamine

>  <URL>
http://drugcentral.org/drugcard/411/view

$$$$
