bunazosin
  -INDIGO-06102310562D

 27 29  0  0  0  0  0  0  0  0999 V2000
   -4.1327    2.1563    0.0000 C   0  0  0  0  0  0  0  0  0  0  0  0
   -3.7747    1.4130    0.0000 C   0  0  0  0  0  0  0  0  0  0  0  0
   -2.9520    1.3514    0.0000 C   0  0  0  0  0  0  0  0  0  0  0  0
   -2.5941    0.6081    0.0000 C   0  0  0  0  0  0  0  0  0  0  0  0
   -3.0588   -0.0736    0.0000 O   0  0  0  0  0  0  0  0  0  0  0  0
   -1.7714    0.5464    0.0000 N   0  0  0  0  0  0  0  0  0  0  0  0
   -1.3589    1.2609    0.0000 C   0  0  0  0  0  0  0  0  0  0  0  0
   -0.5431    1.3838    0.0000 C   0  0  0  0  0  0  0  0  0  0  0  0
    0.0617    0.8227    0.0000 C   0  0  0  0  0  0  0  0  0  0  0  0
    0.0000    0.0000    0.0000 N   0  0  0  0  0  0  0  0  0  0  0  0
   -0.6816   -0.4647    0.0000 C   0  0  0  0  0  0  0  0  0  0  0  0
   -1.4700   -0.2216    0.0000 C   0  0  0  0  0  0  0  0  0  0  0  0
    0.7145   -0.4125    0.0000 C   0  0  0  0  0  0  0  0  0  0  0  0
    1.4289    0.0000    0.0000 N   0  0  0  0  0  0  0  0  0  0  0  0
    2.1434   -0.4125    0.0000 C   0  0  0  0  0  0  0  0  0  0  0  0
    2.8579    0.0000    0.0000 C   0  0  0  0  0  0  0  0  0  0  0  0
    3.5724   -0.4125    0.0000 C   0  0  0  0  0  0  0  0  0  0  0  0
    4.2868    0.0000    0.0000 O   0  0  0  0  0  0  0  0  0  0  0  0
    5.0013   -0.4125    0.0000 C   0  0  0  0  0  0  0  0  0  0  0  0
    3.5724   -1.2375    0.0000 C   0  0  0  0  0  0  0  0  0  0  0  0
    4.2868   -1.6500    0.0000 O   0  0  0  0  0  0  0  0  0  0  0  0
    5.0013   -1.2375    0.0000 C   0  0  0  0  0  0  0  0  0  0  0  0
    2.8579   -1.6500    0.0000 C   0  0  0  0  0  0  0  0  0  0  0  0
    2.1434   -1.2375    0.0000 C   0  0  0  0  0  0  0  0  0  0  0  0
    1.4289   -1.6500    0.0000 C   0  0  0  0  0  0  0  0  0  0  0  0
    1.4289   -2.4750    0.0000 N   0  0  0  0  0  0  0  0  0  0  0  0
    0.7145   -1.2375    0.0000 N   0  0  0  0  0  0  0  0  0  0  0  0
  1  2  1  0  0  0  0
  2  3  1  0  0  0  0
  3  4  1  0  0  0  0
  4  5  2  0  0  0  0
  4  6  1  0  0  0  0
  6  7  1  0  0  0  0
  7  8  1  0  0  0  0
  8  9  1  0  0  0  0
  9 10  1  0  0  0  0
 10 11  1  0  0  0  0
 11 12  1  0  0  0  0
  6 12  1  0  0  0  0
 10 13  1  0  0  0  0
 13 14  4  0  0  0  0
 14 15  4  0  0  0  0
 15 16  4  0  0  0  0
 16 17  4  0  0  0  0
 17 18  1  0  0  0  0
 18 19  1  0  0  0  0
 17 20  4  0  0  0  0
 20 21  1  0  0  0  0
 21 22  1  0  0  0  0
 20 23  4  0  0  0  0
 23 24  4  0  0  0  0
 15 24  4  0  0  0  0
 24 25  4  0  0  0  0
 25 26  1  0  0  0  0
 25 27  4  0  0  0  0
 13 27  4  0  0  0  0
M  END
>  <ID>
429

>  <PREFERRED_NAME>
bunazosin

>  <CAS_RN>
80755-51-7

>  <SYNONYMS>
bunazosin
bunazosin hydrochloride
detantol
bunazosin HCl

>  <URL>
http://drugcentral.org/drugcard/429/view

$$$$
