butamisole
  -INDIGO-06102311242D

 20 22  0  0  1  0  0  0  0  0999 V2000
   -3.7529   -2.3984    0.0000 C   0  0  0  0  0  0  0  0  0  0  0  0
   -2.9279   -2.3984    0.0000 C   0  0  0  0  0  0  0  0  0  0  0  0
   -2.5154   -3.1128    0.0000 C   0  0  0  0  0  0  0  0  0  0  0  0
   -2.5154   -1.6839    0.0000 C   0  0  0  0  0  0  0  0  0  0  0  0
   -2.9279   -0.9694    0.0000 O   0  0  0  0  0  0  0  0  0  0  0  0
   -1.6904   -1.6839    0.0000 N   0  0  0  0  0  0  0  0  0  0  0  0
   -1.2779   -0.9694    0.0000 C   0  0  0  0  0  0  0  0  0  0  0  0
   -1.6904   -0.2549    0.0000 C   0  0  0  0  0  0  0  0  0  0  0  0
   -1.2779    0.4595    0.0000 C   0  0  0  0  0  0  0  0  0  0  0  0
   -0.4529    0.4595    0.0000 C   0  0  0  0  0  0  0  0  0  0  0  0
   -0.0404   -0.2549    0.0000 C   0  0  0  0  0  0  0  0  0  0  0  0
   -0.4529   -0.9694    0.0000 C   0  0  0  0  0  0  0  0  0  0  0  0
    0.7846   -0.2549    0.0000 C   0  0  1  0  0  0  0  0  0  0  0  0
    1.2695    0.4125    0.0000 C   0  0  0  0  0  0  0  0  0  0  0  0
    2.0542    0.1576    0.0000 N   0  0  0  0  0  0  0  0  0  0  0  0
    2.8388    0.4125    0.0000 C   0  0  0  0  0  0  0  0  0  0  0  0
    3.3237   -0.2549    0.0000 C   0  0  0  0  0  0  0  0  0  0  0  0
    2.8388   -0.9224    0.0000 S   0  0  0  0  0  0  0  0  0  0  0  0
    2.0542   -0.6674    0.0000 C   0  0  0  0  0  0  0  0  0  0  0  0
    1.2695   -0.9224    0.0000 N   0  0  0  0  0  0  0  0  0  0  0  0
  1  2  1  0  0  0  0
  2  3  1  0  0  0  0
  2  4  1  0  0  0  0
  4  5  2  0  0  0  0
  4  6  1  0  0  0  0
  6  7  1  0  0  0  0
  7  8  4  0  0  0  0
  8  9  4  0  0  0  0
  9 10  4  0  0  0  0
 10 11  4  0  0  0  0
 11 12  4  0  0  0  0
  7 12  4  0  0  0  0
 13 11  1  1  0  0  0
 13 14  1  0  0  0  0
 14 15  1  0  0  0  0
 15 16  1  0  0  0  0
 16 17  1  0  0  0  0
 17 18  1  0  0  0  0
 18 19  1  0  0  0  0
 15 19  1  0  0  0  0
 19 20  2  0  0  0  0
 13 20  1  0  0  0  0
M  END
>  <ID>
5654

>  <PREFERRED_NAME>
butamisole

>  <CAS_RN>
54400-59-8

>  <SYNONYMS>
butamisole
butamisole hydrochloride

>  <URL>
http://drugcentral.org/drugcard/5654/view

$$$$
