butazolamide
  -INDIGO-06102311102D

 15 15  0  0  0  0  0  0  0  0999 V2000
   -0.6865   -2.4373    0.0000 C   0  0  0  0  0  0  0  0  0  0  0  0
    0.0280   -2.0248    0.0000 C   0  0  0  0  0  0  0  0  0  0  0  0
    0.7425   -2.4373    0.0000 C   0  0  0  0  0  0  0  0  0  0  0  0
    1.4569   -2.0248    0.0000 C   0  0  0  0  0  0  0  0  0  0  0  0
    1.4569   -1.1998    0.0000 O   0  0  0  0  0  0  0  0  0  0  0  0
    2.1714   -2.4373    0.0000 N   0  0  0  0  0  0  0  0  0  0  0  0
    2.8859   -2.0248    0.0000 C   0  0  0  0  0  0  0  0  0  0  0  0
    2.9721   -1.2043    0.0000 N   0  0  0  0  0  0  0  0  0  0  0  0
    3.7791   -1.0328    0.0000 N   0  0  0  0  0  0  0  0  0  0  0  0
    4.1916   -1.7472    0.0000 C   0  0  0  0  0  0  0  0  0  0  0  0
    3.6396   -2.3603    0.0000 S   0  0  0  0  0  0  0  0  0  0  0  0
    5.0121   -1.8335    0.0000 S   0  0  0  0  0  0  0  0  0  0  0  0
    5.8325   -1.9197    0.0000 N   0  0  0  0  0  0  0  0  0  0  0  0
    4.9258   -2.6540    0.0000 O   0  0  0  0  0  0  0  0  0  0  0  0
    5.0983   -1.0130    0.0000 O   0  0  0  0  0  0  0  0  0  0  0  0
  1  2  1  0  0  0  0
  2  3  1  0  0  0  0
  3  4  1  0  0  0  0
  4  5  2  0  0  0  0
  4  6  1  0  0  0  0
  6  7  1  0  0  0  0
  7  8  4  0  0  0  0
  8  9  4  0  0  0  0
  9 10  4  0  0  0  0
 10 11  4  0  0  0  0
  7 11  4  0  0  0  0
 10 12  1  0  0  0  0
 12 13  1  0  0  0  0
 12 14  2  0  0  0  0
 12 15  2  0  0  0  0
M  END
>  <ID>
3693

>  <PREFERRED_NAME>
butazolamide

>  <CAS_RN>
16790-49-1

>  <SYNONYMS>
butazolamide

>  <URL>
http://drugcentral.org/drugcard/3693/view

$$$$
