butriptyline
  -INDIGO-06102310562D

 22 24  0  0  0  0  0  0  0  0999 V2000
   -0.3269   -2.3869    0.0000 C   0  0  0  0  0  0  0  0  0  0  0  0
   -0.3269   -1.5619    0.0000 C   0  0  0  0  0  0  0  0  0  0  0  0
   -1.0414   -1.1494    0.0000 C   0  0  0  0  0  0  0  0  0  0  0  0
   -1.7559   -1.5619    0.0000 C   0  0  0  0  0  0  0  0  0  0  0  0
   -1.6942   -2.3846    0.0000 C   0  0  0  0  0  0  0  0  0  0  0  0
   -0.9059   -2.6277    0.0000 C   0  0  0  0  0  0  0  0  0  0  0  0
   -0.7223   -3.4320    0.0000 C   0  0  0  0  0  0  0  0  0  0  0  0
   -1.3270   -3.9932    0.0000 C   0  0  0  0  0  0  0  0  0  0  0  0
   -2.1154   -3.7500    0.0000 C   0  0  0  0  0  0  0  0  0  0  0  0
   -2.2990   -2.9457    0.0000 C   0  0  0  0  0  0  0  0  0  0  0  0
   -3.1148   -2.8227    0.0000 C   0  0  0  0  0  0  0  0  0  0  0  0
   -3.5273   -2.1083    0.0000 C   0  0  0  0  0  0  0  0  0  0  0  0
   -3.2259   -1.3403    0.0000 C   0  0  0  0  0  0  0  0  0  0  0  0
   -2.4375   -1.0971    0.0000 C   0  0  0  0  0  0  0  0  0  0  0  0
   -2.2539   -0.2928    0.0000 C   0  0  0  0  0  0  0  0  0  0  0  0
   -2.8587    0.2683    0.0000 C   0  0  0  0  0  0  0  0  0  0  0  0
   -3.6470    0.0252    0.0000 C   0  0  0  0  0  0  0  0  0  0  0  0
   -3.8306   -0.7792    0.0000 C   0  0  0  0  0  0  0  0  0  0  0  0
    0.3876   -1.1494    0.0000 C   0  0  0  0  0  0  0  0  0  0  0  0
    1.1020   -1.5619    0.0000 N   0  0  0  0  0  0  0  0  0  0  0  0
    1.8165   -1.1494    0.0000 C   0  0  0  0  0  0  0  0  0  0  0  0
    1.1020   -2.3869    0.0000 C   0  0  0  0  0  0  0  0  0  0  0  0
  1  2  1  0  0  0  0
  2  3  1  0  0  0  0
  3  4  1  0  0  0  0
  4  5  1  0  0  0  0
  5  6  4  0  0  0  0
  6  7  4  0  0  0  0
  7  8  4  0  0  0  0
  8  9  4  0  0  0  0
  9 10  4  0  0  0  0
  5 10  4  0  0  0  0
 10 11  1  0  0  0  0
 11 12  1  0  0  0  0
 12 13  1  0  0  0  0
 13 14  4  0  0  0  0
  4 14  1  0  0  0  0
 14 15  4  0  0  0  0
 15 16  4  0  0  0  0
 16 17  4  0  0  0  0
 17 18  4  0  0  0  0
 13 18  4  0  0  0  0
  2 19  1  0  0  0  0
 19 20  1  0  0  0  0
 20 21  1  0  0  0  0
 20 22  1  0  0  0  0
M  END
>  <ID>
455

>  <PREFERRED_NAME>
butriptyline

>  <CAS_RN>
35941-65-2

>  <SYNONYMS>
butriptyline
butriptyline hydrochloride
butriptylene
butriptyline HCl

>  <URL>
http://drugcentral.org/drugcard/455/view

$$$$
