buzepide metiodide
  -INDIGO-06102310562D

 26 28  0  0  0  0  0  0  0  0999 V2000
    1.5222   -0.6403    0.0000 C   0  0  0  0  0  0  0  0  0  0  0  0
    2.3266   -0.4567    0.0000 N   0  0  0  0  0  0  0  0  0  0  0  0
    2.3266   -1.2817    0.0000 C   0  0  0  0  0  0  0  0  0  0  0  0
    1.6121   -1.6942    0.0000 C   0  0  0  0  0  0  0  0  0  0  0  0
    1.6121   -2.5192    0.0000 C   0  0  0  0  0  0  0  0  0  0  0  0
    0.7871   -2.5192    0.0000 C   0  0  0  0  0  0  0  0  0  0  0  0
    0.3746   -3.2337    0.0000 N   0  0  0  0  0  0  0  0  0  0  0  0
    0.3746   -1.8048    0.0000 O   0  0  0  0  0  0  0  0  0  0  0  0
    1.6121   -3.3442    0.0000 C   0  0  0  0  0  0  0  0  0  0  0  0
    2.3266   -3.7567    0.0000 C   0  0  0  0  0  0  0  0  0  0  0  0
    2.3266   -4.5817    0.0000 C   0  0  0  0  0  0  0  0  0  0  0  0
    1.6121   -4.9942    0.0000 C   0  0  0  0  0  0  0  0  0  0  0  0
    0.8976   -4.5817    0.0000 C   0  0  0  0  0  0  0  0  0  0  0  0
    0.8976   -3.7567    0.0000 C   0  0  0  0  0  0  0  0  0  0  0  0
    2.4371   -2.5192    0.0000 C   0  0  0  0  0  0  0  0  0  0  0  0
    2.8496   -1.8048    0.0000 C   0  0  0  0  0  0  0  0  0  0  0  0
    3.6746   -1.8048    0.0000 C   0  0  0  0  0  0  0  0  0  0  0  0
    4.0871   -2.5192    0.0000 C   0  0  0  0  0  0  0  0  0  0  0  0
    3.6746   -3.2337    0.0000 C   0  0  0  0  0  0  0  0  0  0  0  0
    2.8496   -3.2337    0.0000 C   0  0  0  0  0  0  0  0  0  0  0  0
    1.9686    0.2866    0.0000 C   0  0  0  0  0  0  0  0  0  0  0  0
    2.3266    1.0299    0.0000 C   0  0  0  0  0  0  0  0  0  0  0  0
    3.1309    1.2135    0.0000 C   0  0  0  0  0  0  0  0  0  0  0  0
    3.7759    0.6991    0.0000 C   0  0  0  0  0  0  0  0  0  0  0  0
    3.7759   -0.1259    0.0000 C   0  0  0  0  0  0  0  0  0  0  0  0
    3.1309   -0.6403    0.0000 C   0  0  0  0  0  0  0  0  0  0  0  0
  1  2  1  0  0  0  0
  2  3  1  0  0  0  0
  3  4  1  0  0  0  0
  4  5  1  0  0  0  0
  5  6  1  0  0  0  0
  6  7  1  0  0  0  0
  6  8  2  0  0  0  0
  5  9  1  0  0  0  0
  9 10  4  0  0  0  0
 10 11  4  0  0  0  0
 11 12  4  0  0  0  0
 12 13  4  0  0  0  0
 13 14  4  0  0  0  0
  9 14  4  0  0  0  0
  5 15  1  0  0  0  0
 15 16  4  0  0  0  0
 16 17  4  0  0  0  0
 17 18  4  0  0  0  0
 18 19  4  0  0  0  0
 19 20  4  0  0  0  0
 15 20  4  0  0  0  0
  2 21  1  0  0  0  0
 21 22  1  0  0  0  0
 22 23  1  0  0  0  0
 23 24  1  0  0  0  0
 24 25  1  0  0  0  0
 25 26  1  0  0  0  0
  2 26  1  0  0  0  0
M  CHG  1   2   1
M  END
>  <ID>
459

>  <PREFERRED_NAME>
buzepide metiodide

>  <CAS_RN>
15351-05-0

>  <SYNONYMS>
buzepide metiodide
metazepium iodide
diphexamide iodomethylate
difexamide methiodide

>  <URL>
http://drugcentral.org/drugcard/459/view

$$$$
