cabozantinib
  -INDIGO-06102311142D

 37 41  0  0  0  0  0  0  0  0999 V2000
   -0.7145   -0.4125    0.0000 C   0  0  0  0  0  0  0  0  0  0  0  0
    0.0000    0.0000    0.0000 O   0  0  0  0  0  0  0  0  0  0  0  0
    0.7145   -0.4125    0.0000 C   0  0  0  0  0  0  0  0  0  0  0  0
    1.4289    0.0000    0.0000 C   0  0  0  0  0  0  0  0  0  0  0  0
    2.1434   -0.4125    0.0000 C   0  0  0  0  0  0  0  0  0  0  0  0
    2.8579    0.0000    0.0000 N   0  0  0  0  0  0  0  0  0  0  0  0
    3.5724   -0.4125    0.0000 C   0  0  0  0  0  0  0  0  0  0  0  0
    3.5724   -1.2375    0.0000 C   0  0  0  0  0  0  0  0  0  0  0  0
    2.8579   -1.6500    0.0000 C   0  0  0  0  0  0  0  0  0  0  0  0
    2.8579   -2.4750    0.0000 O   0  0  0  0  0  0  0  0  0  0  0  0
    2.1434   -2.8875    0.0000 C   0  0  0  0  0  0  0  0  0  0  0  0
    2.1434   -3.7125    0.0000 C   0  0  0  0  0  0  0  0  0  0  0  0
    1.4289   -4.1250    0.0000 C   0  0  0  0  0  0  0  0  0  0  0  0
    0.7145   -3.7125    0.0000 C   0  0  0  0  0  0  0  0  0  0  0  0
    0.0000   -4.1250    0.0000 N   0  0  0  0  0  0  0  0  0  0  0  0
    0.0000   -4.9500    0.0000 C   0  0  0  0  0  0  0  0  0  0  0  0
    0.7145   -5.3625    0.0000 O   0  0  0  0  0  0  0  0  0  0  0  0
   -0.7145   -5.3625    0.0000 C   0  0  0  0  0  0  0  0  0  0  0  0
   -1.5269   -5.5058    0.0000 C   0  0  0  0  0  0  0  0  0  0  0  0
   -1.2448   -4.7305    0.0000 C   0  0  0  0  0  0  0  0  0  0  0  0
   -0.4323   -6.1377    0.0000 C   0  0  0  0  0  0  0  0  0  0  0  0
    0.3802   -6.2810    0.0000 O   0  0  0  0  0  0  0  0  0  0  0  0
   -0.9626   -6.7697    0.0000 N   0  0  0  0  0  0  0  0  0  0  0  0
   -1.7751   -6.6265    0.0000 C   0  0  0  0  0  0  0  0  0  0  0  0
   -2.3054   -7.2585    0.0000 C   0  0  0  0  0  0  0  0  0  0  0  0
   -3.1178   -7.1152    0.0000 C   0  0  0  0  0  0  0  0  0  0  0  0
   -3.4000   -6.3400    0.0000 C   0  0  0  0  0  0  0  0  0  0  0  0
   -4.2125   -6.1967    0.0000 F   0  0  0  0  0  0  0  0  0  0  0  0
   -2.8697   -5.7080    0.0000 C   0  0  0  0  0  0  0  0  0  0  0  0
   -2.0572   -5.8512    0.0000 C   0  0  0  0  0  0  0  0  0  0  0  0
    0.7145   -2.8875    0.0000 C   0  0  0  0  0  0  0  0  0  0  0  0
    1.4289   -2.4750    0.0000 C   0  0  0  0  0  0  0  0  0  0  0  0
    2.1434   -1.2375    0.0000 C   0  0  0  0  0  0  0  0  0  0  0  0
    1.4289   -1.6500    0.0000 C   0  0  0  0  0  0  0  0  0  0  0  0
    0.7145   -1.2375    0.0000 C   0  0  0  0  0  0  0  0  0  0  0  0
    0.0000   -1.6500    0.0000 O   0  0  0  0  0  0  0  0  0  0  0  0
   -0.7145   -1.2375    0.0000 C   0  0  0  0  0  0  0  0  0  0  0  0
  1  2  1  0  0  0  0
  2  3  1  0  0  0  0
  3  4  4  0  0  0  0
  4  5  4  0  0  0  0
  5  6  4  0  0  0  0
  6  7  4  0  0  0  0
  7  8  4  0  0  0  0
  8  9  4  0  0  0  0
  9 10  1  0  0  0  0
 10 11  1  0  0  0  0
 11 12  4  0  0  0  0
 12 13  4  0  0  0  0
 13 14  4  0  0  0  0
 14 15  1  0  0  0  0
 15 16  1  0  0  0  0
 16 17  2  0  0  0  0
 16 18  1  0  0  0  0
 18 19  1  0  0  0  0
 19 20  1  0  0  0  0
 18 20  1  0  0  0  0
 18 21  1  0  0  0  0
 21 22  2  0  0  0  0
 21 23  1  0  0  0  0
 23 24  1  0  0  0  0
 24 25  4  0  0  0  0
 25 26  4  0  0  0  0
 26 27  4  0  0  0  0
 27 28  1  0  0  0  0
 27 29  4  0  0  0  0
 29 30  4  0  0  0  0
 24 30  4  0  0  0  0
 14 31  4  0  0  0  0
 31 32  4  0  0  0  0
 11 32  4  0  0  0  0
  9 33  4  0  0  0  0
  5 33  4  0  0  0  0
 33 34  4  0  0  0  0
 34 35  4  0  0  0  0
  3 35  4  0  0  0  0
 35 36  1  0  0  0  0
 36 37  1  0  0  0  0
M  END
>  <ID>
4715

>  <PREFERRED_NAME>
cabozantinib

>  <CAS_RN>
849217-68-1

>  <SYNONYMS>
cabozantinib
cabozantinib malate
cabozantinib (S)-malate
cometriq
XL184
cabozantinib S-malate
cabometyx

>  <URL>
http://drugcentral.org/drugcard/4715/view

$$$$
