cafedrine
  -INDIGO-06102310562D

 26 28  0  0  1  0  0  0  0  0999 V2000
    0.7233   -1.6180    0.0000 C   0  0  0  0  0  0  0  0  0  0  0  0
    0.7233   -0.7930    0.0000 C   0  0  2  0  0  0  0  0  0  0  0  0
    0.0089   -0.3805    0.0000 N   0  0  0  0  0  0  0  0  0  0  0  0
   -0.7056   -0.7930    0.0000 C   0  0  0  0  0  0  0  0  0  0  0  0
   -1.4201   -0.3805    0.0000 C   0  0  0  0  0  0  0  0  0  0  0  0
   -2.1345   -0.7930    0.0000 N   0  0  0  0  0  0  0  0  0  0  0  0
   -2.8882   -0.4574    0.0000 C   0  0  0  0  0  0  0  0  0  0  0  0
   -3.4402   -1.0705    0.0000 N   0  0  0  0  0  0  0  0  0  0  0  0
   -3.0277   -1.7850    0.0000 C   0  0  0  0  0  0  0  0  0  0  0  0
   -2.2208   -1.6135    0.0000 C   0  0  0  0  0  0  0  0  0  0  0  0
   -1.6687   -2.2266    0.0000 C   0  0  0  0  0  0  0  0  0  0  0  0
   -0.8618   -2.0551    0.0000 O   0  0  0  0  0  0  0  0  0  0  0  0
   -1.9237   -3.0112    0.0000 N   0  0  0  0  0  0  0  0  0  0  0  0
   -1.3716   -3.6243    0.0000 C   0  0  0  0  0  0  0  0  0  0  0  0
   -2.7307   -3.1827    0.0000 C   0  0  0  0  0  0  0  0  0  0  0  0
   -2.9856   -3.9674    0.0000 O   0  0  0  0  0  0  0  0  0  0  0  0
   -3.2827   -2.5696    0.0000 N   0  0  0  0  0  0  0  0  0  0  0  0
   -4.0897   -2.7412    0.0000 C   0  0  0  0  0  0  0  0  0  0  0  0
    1.4378   -0.3805    0.0000 C   0  0  2  0  0  0  0  0  0  0  0  0
    1.4378    0.4445    0.0000 O   0  0  0  0  0  0  0  0  0  0  0  0
    2.1523   -0.7930    0.0000 C   0  0  0  0  0  0  0  0  0  0  0  0
    2.8668   -0.3805    0.0000 C   0  0  0  0  0  0  0  0  0  0  0  0
    3.5812   -0.7930    0.0000 C   0  0  0  0  0  0  0  0  0  0  0  0
    3.5812   -1.6180    0.0000 C   0  0  0  0  0  0  0  0  0  0  0  0
    2.8668   -2.0305    0.0000 C   0  0  0  0  0  0  0  0  0  0  0  0
    2.1523   -1.6180    0.0000 C   0  0  0  0  0  0  0  0  0  0  0  0
  2  1  1  6  0  0  0
  2  3  1  0  0  0  0
  3  4  1  0  0  0  0
  4  5  1  0  0  0  0
  5  6  1  0  0  0  0
  6  7  4  0  0  0  0
  7  8  4  0  0  0  0
  8  9  4  0  0  0  0
  9 10  4  0  0  0  0
  6 10  4  0  0  0  0
 10 11  1  0  0  0  0
 11 12  2  0  0  0  0
 11 13  1  0  0  0  0
 13 14  1  0  0  0  0
 13 15  1  0  0  0  0
 15 16  2  0  0  0  0
 15 17  1  0  0  0  0
  9 17  1  0  0  0  0
 17 18  1  0  0  0  0
  2 19  1  0  0  0  0
 19 20  1  6  0  0  0
 19 21  1  0  0  0  0
 21 22  4  0  0  0  0
 22 23  4  0  0  0  0
 23 24  4  0  0  0  0
 24 25  4  0  0  0  0
 25 26  4  0  0  0  0
 21 26  4  0  0  0  0
M  END
>  <ID>
462

>  <PREFERRED_NAME>
cafedrine

>  <CAS_RN>
58166-83-9

>  <SYNONYMS>
cafedrine
(-)-Cafedrine
l-Cafedrine

>  <URL>
http://drugcentral.org/drugcard/462/view

$$$$
