camphor
  -INDIGO-06102310562D

 11 12  0  0  0  0  0  0  0  0999 V2000
    0.2085    0.3661    0.0000 C   0  0  0  0  0  0  0  0  0  0  0  0
    0.9988    0.1293    0.0000 C   0  0  0  0  0  0  0  0  0  0  0  0
    0.2085   -0.1075    0.0000 C   0  0  0  0  0  0  0  0  0  0  0  0
    1.2050    0.9543    0.0000 C   0  0  0  0  0  0  0  0  0  0  0  0
    0.4906    0.5418    0.0000 C   0  0  0  0  0  0  0  0  0  0  0  0
    0.4906   -0.2832    0.0000 C   0  0  0  0  0  0  0  0  0  0  0  0
    1.2050   -0.6957    0.0000 C   0  0  0  0  0  0  0  0  0  0  0  0
    1.2050   -1.5207    0.0000 C   0  0  0  0  0  0  0  0  0  0  0  0
    1.9195   -0.2832    0.0000 C   0  0  0  0  0  0  0  0  0  0  0  0
    2.6340   -0.6957    0.0000 O   0  0  0  0  0  0  0  0  0  0  0  0
    1.9195    0.5418    0.0000 C   0  0  0  0  0  0  0  0  0  0  0  0
  1  2  1  0  0  0  0
  2  3  1  0  0  0  0
  2  4  1  0  0  0  0
  4  5  1  0  0  0  0
  5  6  1  0  0  0  0
  6  7  1  0  0  0  0
  2  7  1  0  0  0  0
  7  8  1  0  0  0  0
  7  9  1  0  0  0  0
  9 10  2  0  0  0  0
  9 11  1  0  0  0  0
  4 11  1  0  0  0  0
M  END
>  <ID>
470

>  <PREFERRED_NAME>
camphor

>  <CAS_RN>
76-22-2

>  <SYNONYMS>
camphor
alphanon
borneo camphor
DL-Camphor
root bark oil
2-Bornanone
2-Camphanone
camphor (synthetic)
camphor (natural)
camphor, (synthetic)
camphor, (+/-)-
camphora

>  <URL>
http://drugcentral.org/drugcard/470/view

$$$$
