canrenone
  -INDIGO-06102310562D

 25 29  0  0  1  0  0  0  0  0999 V2000
    5.9120   -2.1982    0.0000 C   0  0  0  0  0  0  0  0  0  0  0  0
    6.2168   -1.4316    0.0000 C   0  0  2  0  0  0  0  0  0  0  0  0
    6.5825   -2.1711    0.0000 C   0  0  0  0  0  0  0  0  0  0  0  0
    7.4058   -2.2241    0.0000 C   0  0  0  0  0  0  0  0  0  0  0  0
    7.8634   -1.5376    0.0000 C   0  0  1  0  0  0  0  0  0  0  0  0
    7.4977   -0.7981    0.0000 C   0  0  1  0  0  0  0  0  0  0  0  0
    7.9552   -0.1116    0.0000 C   0  0  0  0  0  0  0  0  0  0  0  0
    8.7785   -0.1646    0.0000 C   0  0  0  0  0  0  0  0  0  0  0  0
    9.1443   -0.9041    0.0000 C   0  0  0  0  0  0  0  0  0  0  0  0
    9.9676   -0.9571    0.0000 C   0  0  0  0  0  0  0  0  0  0  0  0
   10.3333   -1.6966    0.0000 C   0  0  0  0  0  0  0  0  0  0  0  0
   11.1566   -1.7497    0.0000 O   0  0  0  0  0  0  0  0  0  0  0  0
    9.8757   -2.3831    0.0000 C   0  0  0  0  0  0  0  0  0  0  0  0
    9.0524   -2.3301    0.0000 C   0  0  0  0  0  0  0  0  0  0  0  0
    8.6867   -1.5906    0.0000 C   0  0  2  0  0  0  0  0  0  0  0  0
    8.2291   -2.2771    0.0000 C   0  0  0  0  0  0  0  0  0  0  0  0
    6.6744   -0.7451    0.0000 C   0  0  2  0  0  0  0  0  0  0  0  0
    6.1629   -0.0978    0.0000 C   0  0  0  0  0  0  0  0  0  0  0  0
    5.3892   -0.3842    0.0000 C   0  0  0  0  0  0  0  0  0  0  0  0
    5.4225   -1.2085    0.0000 C   0  0  1  0  0  0  0  0  0  0  0  0
    5.4559   -2.0328    0.0000 C   0  0  0  0  0  0  0  0  0  0  0  0
    4.6822   -2.3193    0.0000 C   0  0  0  0  0  0  0  0  0  0  0  0
    4.1707   -1.6720    0.0000 C   0  0  0  0  0  0  0  0  0  0  0  0
    3.3464   -1.7053    0.0000 O   0  0  0  0  0  0  0  0  0  0  0  0
    4.6282   -0.9855    0.0000 O   0  0  0  0  0  0  0  0  0  0  0  0
  2  1  1  1  0  0  0
  2  3  1  0  0  0  0
  3  4  1  0  0  0  0
  5  4  1  1  0  0  0
  5  6  1  0  0  0  0
  6  7  1  6  0  0  0
  7  8  2  0  0  0  0
  8  9  1  0  0  0  0
  9 10  2  0  0  0  0
 10 11  1  0  0  0  0
 11 12  2  0  0  0  0
 11 13  1  0  0  0  0
 13 14  1  0  0  0  0
 14 15  1  0  0  0  0
  5 15  1  0  0  0  0
  9 15  1  0  0  0  0
 15 16  1  1  0  0  0
  6 17  1  0  0  0  0
  2 17  1  0  0  0  0
 17 18  1  1  0  0  0
 18 19  1  0  0  0  0
 19 20  1  0  0  0  0
  2 20  1  0  0  0  0
 20 21  1  0  0  0  0
 21 22  1  0  0  0  0
 22 23  1  0  0  0  0
 23 24  2  0  0  0  0
 23 25  1  0  0  0  0
 20 25  1  1  0  0  0
M  END
>  <ID>
478

>  <PREFERRED_NAME>
canrenone

>  <CAS_RN>
976-71-6

>  <SYNONYMS>
canrenone
aldadiene
phanurane

>  <URL>
http://drugcentral.org/drugcard/478/view

$$$$
