carbon tetrachloride
  -INDIGO-06102311082D

  5  4  0  0  0  0  0  0  0  0999 V2000
    0.8250   -0.8250    0.0000 Cl  0  0  0  0  0  0  0  0  0  0  0  0
    0.8250    0.0000    0.0000 C   0  0  0  0  0  0  0  0  0  0  0  0
    0.8250    0.8250    0.0000 Cl  0  0  0  0  0  0  0  0  0  0  0  0
    1.6500    0.0000    0.0000 Cl  0  0  0  0  0  0  0  0  0  0  0  0
    0.0000    0.0000    0.0000 Cl  0  0  0  0  0  0  0  0  0  0  0  0
  1  2  1  0  0  0  0
  2  3  1  0  0  0  0
  2  4  1  0  0  0  0
  2  5  1  0  0  0  0
M  END
>  <ID>
3067

>  <PREFERRED_NAME>
carbon tetrachloride

>  <CAS_RN>
56-23-5

>  <SYNONYMS>
carbon tetrachloride
benzinoform
perchloromethane
tetrachloromethane
tetrafinol

>  <URL>
http://drugcentral.org/drugcard/3067/view

$$$$
