carbomycin
  -INDIGO-06102311242D

 61 64  0  0  1  0  0  0  0  0999 V2000
   12.1750   -1.0076    0.0000 H   0  0  0  0  0  0  0  0  0  0  0  0
   11.4747   -1.4438    0.0000 C   0  0  1  0  0  0  0  0  0  0  0  0
   10.7745   -1.8800    0.0000 C   0  0  0  0  0  0  0  0  0  0  0  0
   10.8021   -2.7045    0.0000 C   0  0  1  0  0  0  0  0  0  0  0  0
    9.9853   -2.5885    0.0000 C   0  0  0  0  0  0  0  0  0  0  0  0
   10.5460   -3.4888    0.0000 O   0  0  0  0  0  0  0  0  0  0  0  0
   11.5300   -3.0929    0.0000 C   0  0  1  0  0  0  0  0  0  0  0  0
   11.5576   -3.9174    0.0000 O   0  0  0  0  0  0  0  0  0  0  0  0
   12.2854   -4.3058    0.0000 C   0  0  0  0  0  0  0  0  0  0  0  0
   12.9857   -3.8696    0.0000 O   0  0  0  0  0  0  0  0  0  0  0  0
   12.3131   -5.1303    0.0000 C   0  0  0  0  0  0  0  0  0  0  0  0
   13.0409   -5.5186    0.0000 C   0  0  0  0  0  0  0  0  0  0  0  0
   13.0686   -6.3432    0.0000 C   0  0  0  0  0  0  0  0  0  0  0  0
   13.7412   -5.0825    0.0000 C   0  0  0  0  0  0  0  0  0  0  0  0
   12.2302   -2.6567    0.0000 C   0  0  2  0  0  0  0  0  0  0  0  0
   12.9581   -3.0450    0.0000 C   0  0  0  0  0  0  0  0  0  0  0  0
   12.2026   -1.8321    0.0000 O   0  0  0  0  0  0  0  0  0  0  0  0
   11.4471   -0.6193    0.0000 O   0  0  0  0  0  0  0  0  0  0  0  0
   10.7192   -0.2309    0.0000 C   0  0  2  0  0  0  0  0  0  0  0  0
   10.0190   -0.6671    0.0000 C   0  0  1  0  0  0  0  0  0  0  0  0
   10.0466   -1.4916    0.0000 C   0  0  0  0  0  0  0  0  0  0  0  0
    9.2911   -0.2787    0.0000 O   0  0  0  0  0  0  0  0  0  0  0  0
    9.2635    0.5458    0.0000 C   0  0  1  0  0  0  0  0  0  0  0  0
    9.9913    0.1574    0.0000 H   0  0  0  0  0  0  0  0  0  0  0  0
    8.5356    0.9341    0.0000 O   0  0  0  0  0  0  0  0  0  0  0  0
    7.7348    0.7357    0.0000 C   0  0  1  0  0  0  0  0  0  0  0  0
    8.0954   -0.0063    0.0000 C   0  0  1  0  0  0  0  0  0  0  0  0
    8.9183   -0.0650    0.0000 C   0  0  0  0  0  0  0  0  0  0  0  0
    9.2789   -0.8071    0.0000 C   0  0  0  0  0  0  0  0  0  0  0  0
    8.8166   -1.4904    0.0000 O   0  0  0  0  0  0  0  0  0  0  0  0
    7.6331   -0.6896    0.0000 C   0  0  0  0  0  0  0  0  0  0  0  0
    6.8102   -0.6309    0.0000 C   0  0  1  0  0  0  0  0  0  0  0  0
    6.3479   -1.3142    0.0000 C   0  0  0  0  0  0  0  0  0  0  0  0
    6.4496    0.1111    0.0000 C   0  0  0  0  0  0  0  0  0  0  0  0
    6.9119    0.7944    0.0000 O   0  0  0  0  0  0  0  0  0  0  0  0
    5.6267    0.1698    0.0000 C   0  0  0  0  0  0  0  0  0  0  0  0
    5.2661    0.9119    0.0000 C   0  0  0  0  0  0  0  0  0  0  0  0
    4.4432    0.9706    0.0000 C   0  0  2  0  0  0  0  0  0  0  0  0
    3.6203    1.0293    0.0000 O   0  0  0  0  0  0  0  0  0  0  0  0
    4.0826    1.7126    0.0000 C   0  0  1  0  0  0  0  0  0  0  0  0
    4.5449    2.3959    0.0000 C   0  0  0  0  0  0  0  0  0  0  0  0
    5.3678    2.3372    0.0000 C   0  0  1  0  0  0  0  0  0  0  0  0
    5.7284    1.5952    0.0000 C   0  0  0  0  0  0  0  0  0  0  0  0
    5.8301    3.0205    0.0000 O   0  0  0  0  0  0  0  0  0  0  0  0
    6.6530    2.9618    0.0000 C   0  0  0  0  0  0  0  0  0  0  0  0
    7.1153    3.6451    0.0000 O   0  0  0  0  0  0  0  0  0  0  0  0
    7.0136    2.2197    0.0000 C   0  0  0  0  0  0  0  0  0  0  0  0
    7.8365    2.1610    0.0000 C   0  0  1  0  0  0  0  0  0  0  0  0
    8.2988    2.8443    0.0000 O   0  0  0  0  0  0  0  0  0  0  0  0
    7.9382    3.5863    0.0000 C   0  0  0  0  0  0  0  0  0  0  0  0
    7.3070    4.1175    0.0000 C   0  0  0  0  0  0  0  0  0  0  0  0
    8.4005    4.2696    0.0000 O   0  0  0  0  0  0  0  0  0  0  0  0
    8.1971    1.4190    0.0000 C   0  0  2  0  0  0  0  0  0  0  0  0
    9.0200    1.3603    0.0000 O   0  0  0  0  0  0  0  0  0  0  0  0
    9.4823    2.0436    0.0000 C   0  0  0  0  0  0  0  0  0  0  0  0
    9.9637    0.9820    0.0000 C   0  0  2  0  0  0  0  0  0  0  0  0
    9.9361    1.8065    0.0000 O   0  0  0  0  0  0  0  0  0  0  0  0
   10.6916    0.5936    0.0000 C   0  0  1  0  0  0  0  0  0  0  0  0
   11.3919    1.0298    0.0000 N   0  0  0  0  0  0  0  0  0  0  0  0
   12.1197    0.6415    0.0000 C   0  0  0  0  0  0  0  0  0  0  0  0
   11.3642    1.8544    0.0000 C   0  0  0  0  0  0  0  0  0  0  0  0
  2  1  1  1  0  0  0
  2  3  1  0  0  0  0
  3  4  1  0  0  0  0
  4  5  1  1  0  0  0
  4  6  1  6  0  0  0
  4  7  1  0  0  0  0
  7  8  1  6  0  0  0
  8  9  1  0  0  0  0
  9 10  2  0  0  0  0
  9 11  1  0  0  0  0
 11 12  1  0  0  0  0
 12 13  1  0  0  0  0
 12 14  1  0  0  0  0
  7 15  1  0  0  0  0
 15 16  1  1  0  0  0
 15 17  1  0  0  0  0
  2 17  1  0  0  0  0
  2 18  1  6  0  0  0
 19 18  1  6  0  0  0
 19 20  1  0  0  0  0
 20 21  1  1  0  0  0
 20 22  1  0  0  0  0
 22 23  1  0  0  0  0
 23 24  1  6  0  0  0
 23 25  1  6  0  0  0
 26 25  1  6  0  0  0
 26 27  1  0  0  0  0
 27 28  1  1  0  0  0
 28 29  1  0  0  0  0
 29 30  2  0  0  0  0
 27 31  1  0  0  0  0
 31 32  1  0  0  0  0
 32 33  1  1  0  0  0
 32 34  1  0  0  0  0
 34 35  2  0  0  0  0
 34 36  1  0  0  0  0
 36 37  2  0  0  0  0
 37 38  1  0  0  0  0
 38 39  1  6  0  0  0
 40 39  1  1  0  0  0
 38 40  1  0  0  0  0
 40 41  1  0  0  0  0
 41 42  1  0  0  0  0
 42 43  1  6  0  0  0
 42 44  1  0  0  0  0
 44 45  1  0  0  0  0
 45 46  2  0  0  0  0
 45 47  1  0  0  0  0
 47 48  1  0  0  0  0
 48 49  1  1  0  0  0
 49 50  1  0  0  0  0
 50 51  1  0  0  0  0
 50 52  2  0  0  0  0
 48 53  1  0  0  0  0
 26 53  1  0  0  0  0
 53 54  1  6  0  0  0
 54 55  1  0  0  0  0
 23 56  1  0  0  0  0
 56 57  1  6  0  0  0
 56 58  1  0  0  0  0
 19 58  1  0  0  0  0
 58 59  1  1  0  0  0
 59 60  1  0  0  0  0
 59 61  1  0  0  0  0
M  END
>  <ID>
5658

>  <PREFERRED_NAME>
carbomycin

>  <CAS_RN>
4564-87-8

>  <SYNONYMS>
carbomycin
magnamycin

>  <URL>
http://drugcentral.org/drugcard/5658/view

$$$$
