carbocisteine
  -INDIGO-06102311102D

 11 10  0  0  1  0  0  0  0  0999 V2000
    4.6184    2.6664    0.0000 N   0  0  0  0  0  0  0  0  0  0  0  0
    4.6184    1.8414    0.0000 C   0  0  1  0  0  0  0  0  0  0  0  0
    3.9039    1.4289    0.0000 C   0  0  0  0  0  0  0  0  0  0  0  0
    3.1895    1.8414    0.0000 S   0  0  0  0  0  0  0  0  0  0  0  0
    2.4750    1.4289    0.0000 C   0  0  0  0  0  0  0  0  0  0  0  0
    1.7605    1.8414    0.0000 C   0  0  0  0  0  0  0  0  0  0  0  0
    1.0461    1.4289    0.0000 O   0  0  0  0  0  0  0  0  0  0  0  0
    1.7605    2.6664    0.0000 O   0  0  0  0  0  0  0  0  0  0  0  0
    5.3329    1.4289    0.0000 C   0  0  0  0  0  0  0  0  0  0  0  0
    6.0474    1.8414    0.0000 O   0  0  0  0  0  0  0  0  0  0  0  0
    5.3329    0.6039    0.0000 O   0  0  0  0  0  0  0  0  0  0  0  0
  2  1  1  6  0  0  0
  2  3  1  0  0  0  0
  3  4  1  0  0  0  0
  4  5  1  0  0  0  0
  5  6  1  0  0  0  0
  6  7  1  0  0  0  0
  6  8  2  0  0  0  0
  2  9  1  0  0  0  0
  9 10  1  0  0  0  0
  9 11  2  0  0  0  0
M  END
>  <ID>
4160

>  <PREFERRED_NAME>
carbocisteine

>  <CAS_RN>
638-23-3

>  <SYNONYMS>
carbocisteine
bronchokod
carbocit
carbocysteine
chilvax
L-(Carboxymethyl)cysteine
lisil
lisomucil
loviscol
muciclar
mucocis
mucodyne
mucofan
mucolase
mucolex
mucopront
mucosol
mucotab
mukinyl
PectDrill
pectox
pulmoclase
reomucil
rhinathiol
rhinatiol
thiodril
transbronchin
carbocisteine sodium

>  <URL>
http://drugcentral.org/drugcard/4160/view

$$$$
