carotegrast methyl
  -INDIGO-06102311242D

 39 42  0  0  1  0  0  0  0  0999 V2000
   -2.5559   -2.9980    0.0000 C   0  0  0  0  0  0  0  0  0  0  0  0
   -2.1434   -3.7125    0.0000 O   0  0  0  0  0  0  0  0  0  0  0  0
   -1.3184   -3.7125    0.0000 C   0  0  0  0  0  0  0  0  0  0  0  0
   -0.9059   -2.9980    0.0000 O   0  0  0  0  0  0  0  0  0  0  0  0
   -0.9059   -4.4270    0.0000 C   0  0  2  0  0  0  0  0  0  0  0  0
   -1.3184   -5.1414    0.0000 C   0  0  0  0  0  0  0  0  0  0  0  0
   -2.1434   -5.1414    0.0000 C   0  0  0  0  0  0  0  0  0  0  0  0
   -2.5559   -5.8559    0.0000 C   0  0  0  0  0  0  0  0  0  0  0  0
   -3.3809   -5.8559    0.0000 C   0  0  0  0  0  0  0  0  0  0  0  0
   -3.7934   -5.1414    0.0000 C   0  0  0  0  0  0  0  0  0  0  0  0
   -3.3809   -4.4270    0.0000 C   0  0  0  0  0  0  0  0  0  0  0  0
   -2.5559   -4.4270    0.0000 C   0  0  0  0  0  0  0  0  0  0  0  0
   -4.6184   -5.1414    0.0000 N   0  0  0  0  0  0  0  0  0  0  0  0
   -5.0309   -4.4270    0.0000 C   0  0  0  0  0  0  0  0  0  0  0  0
   -4.6184   -3.7125    0.0000 O   0  0  0  0  0  0  0  0  0  0  0  0
   -5.8559   -4.4270    0.0000 N   0  0  0  0  0  0  0  0  0  0  0  0
   -6.2684   -3.7125    0.0000 C   0  0  0  0  0  0  0  0  0  0  0  0
   -6.2684   -5.1414    0.0000 C   0  0  0  0  0  0  0  0  0  0  0  0
   -5.8559   -5.8559    0.0000 C   0  0  0  0  0  0  0  0  0  0  0  0
   -6.2684   -6.5704    0.0000 C   0  0  0  0  0  0  0  0  0  0  0  0
   -7.0934   -6.5704    0.0000 C   0  0  0  0  0  0  0  0  0  0  0  0
   -7.5059   -5.8559    0.0000 C   0  0  0  0  0  0  0  0  0  0  0  0
   -7.0934   -5.1414    0.0000 C   0  0  0  0  0  0  0  0  0  0  0  0
   -7.5059   -7.2849    0.0000 N   0  0  0  0  0  0  0  0  0  0  0  0
   -8.3309   -7.2849    0.0000 C   0  0  0  0  0  0  0  0  0  0  0  0
   -7.0934   -7.9993    0.0000 C   0  0  0  0  0  0  0  0  0  0  0  0
   -5.0309   -5.8559    0.0000 C   0  0  0  0  0  0  0  0  0  0  0  0
   -4.6184   -6.5704    0.0000 O   0  0  0  0  0  0  0  0  0  0  0  0
   -0.0809   -4.4270    0.0000 N   0  0  0  0  0  0  0  0  0  0  0  0
    0.3316   -3.7125    0.0000 C   0  0  0  0  0  0  0  0  0  0  0  0
   -0.0809   -2.9980    0.0000 O   0  0  0  0  0  0  0  0  0  0  0  0
    1.1566   -3.7125    0.0000 C   0  0  0  0  0  0  0  0  0  0  0  0
    1.5691   -2.9980    0.0000 C   0  0  0  0  0  0  0  0  0  0  0  0
    1.1566   -2.2836    0.0000 Cl  0  0  0  0  0  0  0  0  0  0  0  0
    2.3941   -2.9980    0.0000 C   0  0  0  0  0  0  0  0  0  0  0  0
    2.8066   -3.7125    0.0000 C   0  0  0  0  0  0  0  0  0  0  0  0
    2.3941   -4.4270    0.0000 C   0  0  0  0  0  0  0  0  0  0  0  0
    1.5691   -4.4270    0.0000 C   0  0  0  0  0  0  0  0  0  0  0  0
    1.1566   -5.1414    0.0000 Cl  0  0  0  0  0  0  0  0  0  0  0  0
  1  2  1  0  0  0  0
  2  3  1  0  0  0  0
  3  4  2  0  0  0  0
  3  5  1  0  0  0  0
  5  6  1  0  0  0  0
  6  7  1  0  0  0  0
  7  8  4  0  0  0  0
  8  9  4  0  0  0  0
  9 10  4  0  0  0  0
 10 11  4  0  0  0  0
 11 12  4  0  0  0  0
  7 12  4  0  0  0  0
 10 13  1  0  0  0  0
 13 14  1  0  0  0  0
 14 15  2  0  0  0  0
 14 16  1  0  0  0  0
 16 17  1  0  0  0  0
 16 18  1  0  0  0  0
 18 19  4  0  0  0  0
 19 20  4  0  0  0  0
 20 21  4  0  0  0  0
 21 22  4  0  0  0  0
 22 23  4  0  0  0  0
 18 23  4  0  0  0  0
 21 24  1  0  0  0  0
 24 25  1  0  0  0  0
 24 26  1  0  0  0  0
 19 27  1  0  0  0  0
 13 27  1  0  0  0  0
 27 28  2  0  0  0  0
  5 29  1  1  0  0  0
 29 30  1  0  0  0  0
 30 31  2  0  0  0  0
 30 32  1  0  0  0  0
 32 33  4  0  0  0  0
 33 34  1  0  0  0  0
 33 35  4  0  0  0  0
 35 36  4  0  0  0  0
 36 37  4  0  0  0  0
 37 38  4  0  0  0  0
 32 38  4  0  0  0  0
 38 39  1  0  0  0  0
M  END
>  <ID>
5688

>  <PREFERRED_NAME>
carotegrast methyl

>  <CAS_RN>
401905-67-7

>  <SYNONYMS>
carotegrast methyl
AJM300
carogra

>  <URL>
http://drugcentral.org/drugcard/5688/view

$$$$
