cefalexin pivoxil
  -INDIGO-06102311032D

 32 34  0  0  1  0  0  0  0  0999 V2000
    2.7069    0.5635    0.0000 C   0  0  0  0  0  0  0  0  0  0  0  0
    1.9924    0.9760    0.0000 C   0  0  0  0  0  0  0  0  0  0  0  0
    1.2780    0.5635    0.0000 C   0  0  0  0  0  0  0  0  0  0  0  0
    0.5635    0.9760    0.0000 N   0  0  0  0  0  0  0  0  0  0  0  0
    0.5635    1.8010    0.0000 C   0  0  2  0  0  0  0  0  0  0  0  0
    1.2780    2.2135    0.0000 S   0  0  0  0  0  0  0  0  0  0  0  0
    1.9924    1.8010    0.0000 C   0  0  0  0  0  0  0  0  0  0  0  0
   -0.2615    1.8010    0.0000 C   0  0  2  0  0  0  0  0  0  0  0  0
   -0.8449    2.3843    0.0000 N   0  0  0  0  0  0  0  0  0  0  0  0
   -1.6418    2.1708    0.0000 C   0  0  0  0  0  0  0  0  0  0  0  0
   -1.8553    1.3739    0.0000 O   0  0  0  0  0  0  0  0  0  0  0  0
   -2.2251    2.7542    0.0000 C   0  0  2  0  0  0  0  0  0  0  0  0
   -2.0116    3.5511    0.0000 N   0  0  0  0  0  0  0  0  0  0  0  0
   -3.0220    2.5407    0.0000 C   0  0  0  0  0  0  0  0  0  0  0  0
   -3.2355    1.7438    0.0000 C   0  0  0  0  0  0  0  0  0  0  0  0
   -4.0324    1.5302    0.0000 C   0  0  0  0  0  0  0  0  0  0  0  0
   -4.6158    2.1136    0.0000 C   0  0  0  0  0  0  0  0  0  0  0  0
   -4.4023    2.9105    0.0000 C   0  0  0  0  0  0  0  0  0  0  0  0
   -3.6054    3.1240    0.0000 C   0  0  0  0  0  0  0  0  0  0  0  0
   -0.2615    0.9760    0.0000 C   0  0  0  0  0  0  0  0  0  0  0  0
   -0.8449    0.3926    0.0000 O   0  0  0  0  0  0  0  0  0  0  0  0
    1.2780   -0.2615    0.0000 C   0  0  0  0  0  0  0  0  0  0  0  0
    0.5635   -0.6740    0.0000 O   0  0  0  0  0  0  0  0  0  0  0  0
    1.9924   -0.6740    0.0000 O   0  0  0  0  0  0  0  0  0  0  0  0
    1.9924   -1.4990    0.0000 C   0  0  0  0  0  0  0  0  0  0  0  0
    2.7069   -1.9115    0.0000 O   0  0  0  0  0  0  0  0  0  0  0  0
    2.7069   -2.7365    0.0000 C   0  0  0  0  0  0  0  0  0  0  0  0
    1.9924   -3.1490    0.0000 O   0  0  0  0  0  0  0  0  0  0  0  0
    3.4214   -3.1490    0.0000 C   0  0  0  0  0  0  0  0  0  0  0  0
    4.1358   -3.5615    0.0000 C   0  0  0  0  0  0  0  0  0  0  0  0
    3.0089   -3.8635    0.0000 C   0  0  0  0  0  0  0  0  0  0  0  0
    3.8339   -2.4345    0.0000 C   0  0  0  0  0  0  0  0  0  0  0  0
  1  2  1  0  0  0  0
  2  3  2  0  0  0  0
  3  4  1  0  0  0  0
  5  4  1  1  0  0  0
  5  6  1  0  0  0  0
  6  7  1  0  0  0  0
  2  7  1  0  0  0  0
  5  8  1  0  0  0  0
  8  9  1  1  0  0  0
  9 10  1  0  0  0  0
 10 11  2  0  0  0  0
 10 12  1  0  0  0  0
 12 13  1  1  0  0  0
 12 14  1  0  0  0  0
 14 15  4  0  0  0  0
 15 16  4  0  0  0  0
 16 17  4  0  0  0  0
 17 18  4  0  0  0  0
 18 19  4  0  0  0  0
 14 19  4  0  0  0  0
  8 20  1  0  0  0  0
  4 20  1  0  0  0  0
 20 21  2  0  0  0  0
  3 22  1  0  0  0  0
 22 23  2  0  0  0  0
 22 24  1  0  0  0  0
 24 25  1  0  0  0  0
 25 26  1  0  0  0  0
 26 27  1  0  0  0  0
 27 28  2  0  0  0  0
 27 29  1  0  0  0  0
 29 30  1  0  0  0  0
 29 31  1  0  0  0  0
 29 32  1  0  0  0  0
M  END
>  <ID>
2217

>  <PREFERRED_NAME>
cefalexin pivoxil

>  <CAS_RN>
27726-31-4

>  <SYNONYMS>
cefalexin pivoxil
pivalexin
pivcephalexin

>  <URL>
http://drugcentral.org/drugcard/2217/view

$$$$
