cefapirin
  -INDIGO-06102310572D

 28 30  0  0  1  0  0  0  0  0999 V2000
   -6.6480    2.8061    0.0000 C   0  0  0  0  0  0  0  0  0  0  0  0
   -6.0646    3.3894    0.0000 C   0  0  0  0  0  0  0  0  0  0  0  0
   -6.2781    4.1863    0.0000 O   0  0  0  0  0  0  0  0  0  0  0  0
   -5.2677    3.1759    0.0000 O   0  0  0  0  0  0  0  0  0  0  0  0
   -4.6844    3.7593    0.0000 C   0  0  0  0  0  0  0  0  0  0  0  0
   -3.8875    3.5457    0.0000 C   0  0  0  0  0  0  0  0  0  0  0  0
   -3.3041    4.1291    0.0000 C   0  0  0  0  0  0  0  0  0  0  0  0
   -2.5072    3.9156    0.0000 N   0  0  0  0  0  0  0  0  0  0  0  0
   -2.2937    3.1187    0.0000 C   0  0  2  0  0  0  0  0  0  0  0  0
   -2.8771    2.5353    0.0000 S   0  0  0  0  0  0  0  0  0  0  0  0
   -3.6739    2.7489    0.0000 C   0  0  0  0  0  0  0  0  0  0  0  0
   -1.4968    3.3322    0.0000 C   0  0  2  0  0  0  0  0  0  0  0  0
   -0.7823    2.9197    0.0000 N   0  0  0  0  0  0  0  0  0  0  0  0
   -0.0679    3.3322    0.0000 C   0  0  0  0  0  0  0  0  0  0  0  0
   -0.0679    4.1572    0.0000 O   0  0  0  0  0  0  0  0  0  0  0  0
    0.6466    2.9197    0.0000 C   0  0  0  0  0  0  0  0  0  0  0  0
    1.3611    3.3322    0.0000 S   0  0  0  0  0  0  0  0  0  0  0  0
    2.0755    2.9197    0.0000 C   0  0  0  0  0  0  0  0  0  0  0  0
    2.7900    3.3322    0.0000 C   0  0  0  0  0  0  0  0  0  0  0  0
    3.5045    2.9197    0.0000 C   0  0  0  0  0  0  0  0  0  0  0  0
    3.5045    2.0947    0.0000 N   0  0  0  0  0  0  0  0  0  0  0  0
    2.7900    1.6822    0.0000 C   0  0  0  0  0  0  0  0  0  0  0  0
    2.0755    2.0947    0.0000 C   0  0  0  0  0  0  0  0  0  0  0  0
   -1.7103    4.1291    0.0000 C   0  0  0  0  0  0  0  0  0  0  0  0
   -1.2978    4.8436    0.0000 O   0  0  0  0  0  0  0  0  0  0  0  0
   -3.5176    4.9260    0.0000 C   0  0  0  0  0  0  0  0  0  0  0  0
   -2.9343    5.5094    0.0000 O   0  0  0  0  0  0  0  0  0  0  0  0
   -4.3145    5.1395    0.0000 O   0  0  0  0  0  0  0  0  0  0  0  0
  1  2  1  0  0  0  0
  2  3  2  0  0  0  0
  2  4  1  0  0  0  0
  4  5  1  0  0  0  0
  5  6  1  0  0  0  0
  6  7  2  0  0  0  0
  7  8  1  0  0  0  0
  9  8  1  1  0  0  0
  9 10  1  0  0  0  0
 10 11  1  0  0  0  0
  6 11  1  0  0  0  0
  9 12  1  0  0  0  0
 12 13  1  1  0  0  0
 13 14  1  0  0  0  0
 14 15  2  0  0  0  0
 14 16  1  0  0  0  0
 16 17  1  0  0  0  0
 17 18  1  0  0  0  0
 18 19  4  0  0  0  0
 19 20  4  0  0  0  0
 20 21  4  0  0  0  0
 21 22  4  0  0  0  0
 22 23  4  0  0  0  0
 18 23  4  0  0  0  0
 12 24  1  0  0  0  0
  8 24  1  0  0  0  0
 24 25  2  0  0  0  0
  7 26  1  0  0  0  0
 26 27  1  0  0  0  0
 26 28  2  0  0  0  0
M  END
>  <ID>
575

>  <PREFERRED_NAME>
cefapirin

>  <CAS_RN>
21593-23-7

>  <SYNONYMS>
cefapirin
cefapirin sodium
cefaprin
cephapirin
cephapirine
cephaprin
cephapirin sodium
cephapirin benzathine

>  <URL>
http://drugcentral.org/drugcard/575/view

$$$$
