cefaloridine
  -INDIGO-06102310572D

 28 31  0  0  1  0  0  0  0  0999 V2000
    3.6829    2.4750    0.0000 O   0  0  0  0  0  0  0  0  0  0  0  0
    2.9684    2.0625    0.0000 C   0  0  0  0  0  0  0  0  0  0  0  0
    2.2539    2.4750    0.0000 O   0  0  0  0  0  0  0  0  0  0  0  0
    2.9684    1.2375    0.0000 C   0  0  0  0  0  0  0  0  0  0  0  0
    3.6829    0.8250    0.0000 C   0  0  0  0  0  0  0  0  0  0  0  0
    4.3974    1.2375    0.0000 C   0  0  0  0  0  0  0  0  0  0  0  0
    5.1118    0.8250    0.0000 N   0  0  0  0  0  0  0  0  0  0  0  0
    5.8263    1.2375    0.0000 C   0  0  0  0  0  0  0  0  0  0  0  0
    6.5408    0.8250    0.0000 C   0  0  0  0  0  0  0  0  0  0  0  0
    6.5408    0.0000    0.0000 C   0  0  0  0  0  0  0  0  0  0  0  0
    5.8263   -0.4125    0.0000 C   0  0  0  0  0  0  0  0  0  0  0  0
    5.1118    0.0000    0.0000 C   0  0  0  0  0  0  0  0  0  0  0  0
    3.6829    0.0000    0.0000 C   0  0  0  0  0  0  0  0  0  0  0  0
    2.9684   -0.4125    0.0000 S   0  0  0  0  0  0  0  0  0  0  0  0
    2.2539    0.0000    0.0000 C   0  0  2  0  0  0  0  0  0  0  0  0
    1.4289    0.0000    0.0000 C   0  0  2  0  0  0  0  0  0  0  0  0
    0.8456   -0.5834    0.0000 N   0  0  0  0  0  0  0  0  0  0  0  0
    0.0487   -0.3698    0.0000 C   0  0  0  0  0  0  0  0  0  0  0  0
   -0.1648    0.4271    0.0000 O   0  0  0  0  0  0  0  0  0  0  0  0
   -0.5347   -0.9532    0.0000 C   0  0  0  0  0  0  0  0  0  0  0  0
   -1.3316   -0.7397    0.0000 C   0  0  0  0  0  0  0  0  0  0  0  0
   -1.9727   -1.2589    0.0000 C   0  0  0  0  0  0  0  0  0  0  0  0
   -2.6646   -0.8095    0.0000 C   0  0  0  0  0  0  0  0  0  0  0  0
   -2.4511   -0.0126    0.0000 C   0  0  0  0  0  0  0  0  0  0  0  0
   -1.6272    0.0305    0.0000 S   0  0  0  0  0  0  0  0  0  0  0  0
    1.4289    0.8250    0.0000 C   0  0  0  0  0  0  0  0  0  0  0  0
    0.8456    1.4084    0.0000 O   0  0  0  0  0  0  0  0  0  0  0  0
    2.2539    0.8250    0.0000 N   0  0  0  0  0  0  0  0  0  0  0  0
  1  2  1  0  0  0  0
  2  3  2  0  0  0  0
  2  4  1  0  0  0  0
  4  5  2  0  0  0  0
  5  6  1  0  0  0  0
  6  7  1  0  0  0  0
  7  8  4  0  0  0  0
  8  9  4  0  0  0  0
  9 10  4  0  0  0  0
 10 11  4  0  0  0  0
 11 12  4  0  0  0  0
  7 12  4  0  0  0  0
  5 13  1  0  0  0  0
 13 14  1  0  0  0  0
 14 15  1  0  0  0  0
 15 16  1  0  0  0  0
 16 17  1  6  0  0  0
 17 18  1  0  0  0  0
 18 19  2  0  0  0  0
 18 20  1  0  0  0  0
 20 21  1  0  0  0  0
 21 22  4  0  0  0  0
 22 23  4  0  0  0  0
 23 24  4  0  0  0  0
 24 25  4  0  0  0  0
 21 25  4  0  0  0  0
 16 26  1  0  0  0  0
 26 27  2  0  0  0  0
 26 28  1  0  0  0  0
  4 28  1  0  0  0  0
 15 28  1  6  0  0  0
M  CHG  2   1  -1   7   1
M  END
>  <ID>
573

>  <PREFERRED_NAME>
cefaloridine

>  <CAS_RN>
50-59-9

>  <SYNONYMS>
cefaloridine
cephaloridine
cefaloridin
cephalomycine

>  <URL>
http://drugcentral.org/drugcard/573/view

$$$$
