cefcapene pivoxil
  -INDIGO-06102310562D

 38 40  0  0  1  0  0  0  0  0999 V2000
   -1.8950    0.5887    0.0000 C   0  0  0  0  0  0  0  0  0  0  0  0
   -1.0982    0.8022    0.0000 C   0  0  0  0  0  0  0  0  0  0  0  0
   -0.8846    1.5991    0.0000 C   0  0  0  0  0  0  0  0  0  0  0  0
   -0.0877    1.8126    0.0000 C   0  0  0  0  0  0  0  0  0  0  0  0
    0.4956    1.2293    0.0000 C   0  0  0  0  0  0  0  0  0  0  0  0
    1.2925    1.4428    0.0000 O   0  0  0  0  0  0  0  0  0  0  0  0
    0.2821    0.4324    0.0000 N   0  0  0  0  0  0  0  0  0  0  0  0
    0.8655   -0.1510    0.0000 C   0  0  1  0  0  0  0  0  0  0  0  0
    1.6905   -0.1510    0.0000 C   0  0  1  0  0  0  0  0  0  0  0  0
    2.4049    0.2615    0.0000 S   0  0  0  0  0  0  0  0  0  0  0  0
    3.1194   -0.1510    0.0000 C   0  0  0  0  0  0  0  0  0  0  0  0
    3.1194   -0.9760    0.0000 C   0  0  0  0  0  0  0  0  0  0  0  0
    3.8339   -1.3885    0.0000 C   0  0  0  0  0  0  0  0  0  0  0  0
    3.8339   -2.2135    0.0000 O   0  0  0  0  0  0  0  0  0  0  0  0
    4.5483   -2.6260    0.0000 C   0  0  0  0  0  0  0  0  0  0  0  0
    5.2628   -2.2135    0.0000 N   0  0  0  0  0  0  0  0  0  0  0  0
    4.5483   -3.4510    0.0000 O   0  0  0  0  0  0  0  0  0  0  0  0
    2.4049   -1.3885    0.0000 C   0  0  0  0  0  0  0  0  0  0  0  0
    1.6905   -0.9760    0.0000 N   0  0  0  0  0  0  0  0  0  0  0  0
    0.8655   -0.9760    0.0000 C   0  0  0  0  0  0  0  0  0  0  0  0
    0.2821   -1.5593    0.0000 O   0  0  0  0  0  0  0  0  0  0  0  0
    2.4049   -2.2135    0.0000 C   0  0  0  0  0  0  0  0  0  0  0  0
    1.6905   -2.6260    0.0000 O   0  0  0  0  0  0  0  0  0  0  0  0
    3.1194   -2.6260    0.0000 O   0  0  0  0  0  0  0  0  0  0  0  0
    3.1194   -3.4510    0.0000 C   0  0  0  0  0  0  0  0  0  0  0  0
    3.8339   -3.8635    0.0000 O   0  0  0  0  0  0  0  0  0  0  0  0
    3.8339   -4.6885    0.0000 C   0  0  0  0  0  0  0  0  0  0  0  0
    3.1194   -5.1010    0.0000 O   0  0  0  0  0  0  0  0  0  0  0  0
    4.5483   -5.1010    0.0000 C   0  0  0  0  0  0  0  0  0  0  0  0
    5.2628   -5.5135    0.0000 C   0  0  0  0  0  0  0  0  0  0  0  0
    4.9608   -4.3865    0.0000 C   0  0  0  0  0  0  0  0  0  0  0  0
    4.1358   -5.8155    0.0000 C   0  0  0  0  0  0  0  0  0  0  0  0
    0.1258    2.6095    0.0000 C   0  0  0  0  0  0  0  0  0  0  0  0
   -0.3934    3.2507    0.0000 C   0  0  0  0  0  0  0  0  0  0  0  0
    0.0559    3.9426    0.0000 S   0  0  0  0  0  0  0  0  0  0  0  0
    0.8528    3.7290    0.0000 C   0  0  0  0  0  0  0  0  0  0  0  0
    1.4940    4.2482    0.0000 N   0  0  0  0  0  0  0  0  0  0  0  0
    0.8960    2.9052    0.0000 N   0  0  0  0  0  0  0  0  0  0  0  0
  1  2  1  0  0  0  0
  2  3  1  0  0  0  0
  3  4  2  0  0  0  0
  4  5  1  0  0  0  0
  5  6  2  0  0  0  0
  5  7  1  0  0  0  0
  8  7  1  1  0  0  0
  8  9  1  0  0  0  0
  9 10  1  0  0  0  0
 10 11  1  0  0  0  0
 11 12  1  0  0  0  0
 12 13  1  0  0  0  0
 13 14  1  0  0  0  0
 14 15  1  0  0  0  0
 15 16  1  0  0  0  0
 15 17  2  0  0  0  0
 12 18  2  0  0  0  0
 18 19  1  0  0  0  0
  9 19  1  1  0  0  0
 19 20  1  0  0  0  0
  8 20  1  0  0  0  0
 20 21  2  0  0  0  0
 18 22  1  0  0  0  0
 22 23  2  0  0  0  0
 22 24  1  0  0  0  0
 24 25  1  0  0  0  0
 25 26  1  0  0  0  0
 26 27  1  0  0  0  0
 27 28  2  0  0  0  0
 27 29  1  0  0  0  0
 29 30  1  0  0  0  0
 29 31  1  0  0  0  0
 29 32  1  0  0  0  0
  4 33  1  0  0  0  0
 33 34  4  0  0  0  0
 34 35  4  0  0  0  0
 35 36  4  0  0  0  0
 36 37  1  0  0  0  0
 36 38  4  0  0  0  0
 33 38  4  0  0  0  0
M  END
>  <ID>
532

>  <PREFERRED_NAME>
cefcapene pivoxil

>  <CAS_RN>
105889-45-0

>  <SYNONYMS>
cefcapene pivoxil
cefcamate pivoxil
cefcapene pivoxil hydrochloride
cefcapene pivoxil HCl

>  <URL>
http://drugcentral.org/drugcard/532/view

$$$$
