cefditoren pivoxil
  -INDIGO-06102310562D

 41 44  0  0  1  0  0  0  0  0999 V2000
   -2.9055   -0.4217    0.0000 C   0  0  0  0  0  0  0  0  0  0  0  0
   -2.1086   -0.2082    0.0000 O   0  0  0  0  0  0  0  0  0  0  0  0
   -1.8950    0.5887    0.0000 N   0  0  0  0  0  0  0  0  0  0  0  0
   -1.0982    0.8022    0.0000 C   0  0  0  0  0  0  0  0  0  0  0  0
   -0.5148    0.2189    0.0000 C   0  0  0  0  0  0  0  0  0  0  0  0
   -0.7283   -0.5780    0.0000 O   0  0  0  0  0  0  0  0  0  0  0  0
    0.2821    0.4324    0.0000 N   0  0  0  0  0  0  0  0  0  0  0  0
    0.8655   -0.1510    0.0000 C   0  0  1  0  0  0  0  0  0  0  0  0
    1.6905   -0.1510    0.0000 C   0  0  1  0  0  0  0  0  0  0  0  0
    2.4049    0.2615    0.0000 S   0  0  0  0  0  0  0  0  0  0  0  0
    3.1194   -0.1510    0.0000 C   0  0  0  0  0  0  0  0  0  0  0  0
    3.1194   -0.9760    0.0000 C   0  0  0  0  0  0  0  0  0  0  0  0
    3.8339   -1.3885    0.0000 C   0  0  0  0  0  0  0  0  0  0  0  0
    4.5483   -0.9760    0.0000 C   0  0  0  0  0  0  0  0  0  0  0  0
    4.5483   -0.1510    0.0000 C   0  0  0  0  0  0  0  0  0  0  0  0
    5.2158    0.3339    0.0000 C   0  0  0  0  0  0  0  0  0  0  0  0
    6.0004    0.0790    0.0000 C   0  0  0  0  0  0  0  0  0  0  0  0
    4.9608    1.1186    0.0000 N   0  0  0  0  0  0  0  0  0  0  0  0
    4.1358    1.1186    0.0000 C   0  0  0  0  0  0  0  0  0  0  0  0
    3.8809    0.3339    0.0000 S   0  0  0  0  0  0  0  0  0  0  0  0
    2.4049   -1.3885    0.0000 C   0  0  0  0  0  0  0  0  0  0  0  0
    1.6905   -0.9760    0.0000 N   0  0  0  0  0  0  0  0  0  0  0  0
    0.8655   -0.9760    0.0000 C   0  0  0  0  0  0  0  0  0  0  0  0
    0.2821   -1.5593    0.0000 O   0  0  0  0  0  0  0  0  0  0  0  0
    2.4049   -2.2135    0.0000 C   0  0  0  0  0  0  0  0  0  0  0  0
    1.6905   -2.6260    0.0000 O   0  0  0  0  0  0  0  0  0  0  0  0
    3.1194   -2.6260    0.0000 O   0  0  0  0  0  0  0  0  0  0  0  0
    3.1194   -3.4510    0.0000 C   0  0  0  0  0  0  0  0  0  0  0  0
    3.8339   -3.8635    0.0000 O   0  0  0  0  0  0  0  0  0  0  0  0
    3.8339   -4.6885    0.0000 C   0  0  0  0  0  0  0  0  0  0  0  0
    3.1194   -5.1010    0.0000 O   0  0  0  0  0  0  0  0  0  0  0  0
    4.5483   -5.1010    0.0000 C   0  0  0  0  0  0  0  0  0  0  0  0
    5.2628   -5.5135    0.0000 C   0  0  0  0  0  0  0  0  0  0  0  0
    4.9608   -4.3865    0.0000 C   0  0  0  0  0  0  0  0  0  0  0  0
    4.1358   -5.8155    0.0000 C   0  0  0  0  0  0  0  0  0  0  0  0
   -0.8846    1.5991    0.0000 C   0  0  0  0  0  0  0  0  0  0  0  0
   -1.4038    2.2402    0.0000 C   0  0  0  0  0  0  0  0  0  0  0  0
   -0.9545    2.9322    0.0000 S   0  0  0  0  0  0  0  0  0  0  0  0
   -0.1576    2.7186    0.0000 C   0  0  0  0  0  0  0  0  0  0  0  0
    0.4835    3.2378    0.0000 N   0  0  0  0  0  0  0  0  0  0  0  0
   -0.1144    1.8948    0.0000 N   0  0  0  0  0  0  0  0  0  0  0  0
  1  2  1  0  0  0  0
  2  3  1  0  0  0  0
  3  4  2  0  0  0  0
  4  5  1  0  0  0  0
  5  6  2  0  0  0  0
  5  7  1  0  0  0  0
  8  7  1  1  0  0  0
  8  9  1  0  0  0  0
  9 10  1  0  0  0  0
 10 11  1  0  0  0  0
 11 12  1  0  0  0  0
 12 13  1  0  0  0  0
 13 14  2  0  0  0  0
 14 15  1  0  0  0  0
 15 16  4  0  0  0  0
 16 17  1  0  0  0  0
 16 18  4  0  0  0  0
 18 19  4  0  0  0  0
 19 20  4  0  0  0  0
 15 20  4  0  0  0  0
 12 21  2  0  0  0  0
 21 22  1  0  0  0  0
  9 22  1  1  0  0  0
 22 23  1  0  0  0  0
  8 23  1  0  0  0  0
 23 24  2  0  0  0  0
 21 25  1  0  0  0  0
 25 26  2  0  0  0  0
 25 27  1  0  0  0  0
 27 28  1  0  0  0  0
 28 29  1  0  0  0  0
 29 30  1  0  0  0  0
 30 31  2  0  0  0  0
 30 32  1  0  0  0  0
 32 33  1  0  0  0  0
 32 34  1  0  0  0  0
 32 35  1  0  0  0  0
  4 36  1  0  0  0  0
 36 37  4  0  0  0  0
 37 38  4  0  0  0  0
 38 39  4  0  0  0  0
 39 40  1  0  0  0  0
 39 41  4  0  0  0  0
 36 41  4  0  0  0  0
M  END
>  <ID>
534

>  <PREFERRED_NAME>
cefditoren pivoxil

>  <CAS_RN>
117467-28-4

>  <SYNONYMS>
cefditoren pivoxil
cefditoren pivaloyloxymethyl ester
cefditoren pivoxyl

>  <URL>
http://drugcentral.org/drugcard/534/view

$$$$
