cefdinir
  -INDIGO-06102310562D

 26 28  0  0  1  0  0  0  0  0999 V2000
   -3.9983    0.9542    0.0000 N   0  0  0  0  0  0  0  0  0  0  0  0
   -3.2281    0.6586    0.0000 C   0  0  0  0  0  0  0  0  0  0  0  0
   -2.5362    1.1079    0.0000 N   0  0  0  0  0  0  0  0  0  0  0  0
   -1.8950    0.5887    0.0000 C   0  0  0  0  0  0  0  0  0  0  0  0
   -2.1907   -0.1815    0.0000 C   0  0  0  0  0  0  0  0  0  0  0  0
   -3.0146   -0.1383    0.0000 S   0  0  0  0  0  0  0  0  0  0  0  0
   -1.0982    0.8022    0.0000 C   0  0  0  0  0  0  0  0  0  0  0  0
   -0.8846    1.5991    0.0000 N   0  0  0  0  0  0  0  0  0  0  0  0
   -0.0877    1.8126    0.0000 O   0  0  0  0  0  0  0  0  0  0  0  0
   -0.5148    0.2189    0.0000 C   0  0  0  0  0  0  0  0  0  0  0  0
   -0.7283   -0.5780    0.0000 O   0  0  0  0  0  0  0  0  0  0  0  0
    0.2821    0.4324    0.0000 N   0  0  0  0  0  0  0  0  0  0  0  0
    0.8655   -0.1510    0.0000 C   0  0  1  0  0  0  0  0  0  0  0  0
    1.6905   -0.1510    0.0000 C   0  0  1  0  0  0  0  0  0  0  0  0
    2.4049    0.2615    0.0000 S   0  0  0  0  0  0  0  0  0  0  0  0
    3.1194   -0.1510    0.0000 C   0  0  0  0  0  0  0  0  0  0  0  0
    3.1194   -0.9760    0.0000 C   0  0  0  0  0  0  0  0  0  0  0  0
    3.8339   -1.3885    0.0000 C   0  0  0  0  0  0  0  0  0  0  0  0
    4.5483   -0.9760    0.0000 C   0  0  0  0  0  0  0  0  0  0  0  0
    2.4049   -1.3885    0.0000 C   0  0  0  0  0  0  0  0  0  0  0  0
    1.6905   -0.9760    0.0000 N   0  0  0  0  0  0  0  0  0  0  0  0
    0.8655   -0.9760    0.0000 C   0  0  0  0  0  0  0  0  0  0  0  0
    0.2821   -1.5593    0.0000 O   0  0  0  0  0  0  0  0  0  0  0  0
    2.4049   -2.2135    0.0000 C   0  0  0  0  0  0  0  0  0  0  0  0
    1.6905   -2.6260    0.0000 O   0  0  0  0  0  0  0  0  0  0  0  0
    3.1194   -2.6260    0.0000 O   0  0  0  0  0  0  0  0  0  0  0  0
  1  2  1  0  0  0  0
  2  3  4  0  0  0  0
  3  4  4  0  0  0  0
  4  5  4  0  0  0  0
  5  6  4  0  0  0  0
  2  6  4  0  0  0  0
  4  7  1  0  0  0  0
  7  8  2  0  0  0  0
  8  9  1  0  0  0  0
  7 10  1  0  0  0  0
 10 11  2  0  0  0  0
 10 12  1  0  0  0  0
 13 12  1  1  0  0  0
 13 14  1  0  0  0  0
 14 15  1  0  0  0  0
 15 16  1  0  0  0  0
 16 17  1  0  0  0  0
 17 18  1  0  0  0  0
 18 19  2  0  0  0  0
 17 20  2  0  0  0  0
 20 21  1  0  0  0  0
 14 21  1  1  0  0  0
 21 22  1  0  0  0  0
 13 22  1  0  0  0  0
 22 23  2  0  0  0  0
 20 24  1  0  0  0  0
 24 25  1  0  0  0  0
 24 26  2  0  0  0  0
M  END
>  <ID>
533

>  <PREFERRED_NAME>
cefdinir

>  <CAS_RN>
91832-40-5

>  <SYNONYMS>
cefdinir
cefdinir monohydrate
cefdiel
cefnil
cefzon

>  <URL>
http://drugcentral.org/drugcard/533/view

$$$$
