cefixime
  -INDIGO-06102310562D

 30 32  0  0  1  0  0  0  0  0999 V2000
    0.4835    3.2378    0.0000 N   0  0  0  0  0  0  0  0  0  0  0  0
   -0.1576    2.7186    0.0000 C   0  0  0  0  0  0  0  0  0  0  0  0
   -0.1144    1.8948    0.0000 N   0  0  0  0  0  0  0  0  0  0  0  0
   -0.8846    1.5991    0.0000 C   0  0  0  0  0  0  0  0  0  0  0  0
   -1.4038    2.2402    0.0000 C   0  0  0  0  0  0  0  0  0  0  0  0
   -0.9545    2.9322    0.0000 S   0  0  0  0  0  0  0  0  0  0  0  0
   -1.0982    0.8022    0.0000 C   0  0  0  0  0  0  0  0  0  0  0  0
   -1.8950    0.5887    0.0000 N   0  0  0  0  0  0  0  0  0  0  0  0
   -2.1086   -0.2082    0.0000 O   0  0  0  0  0  0  0  0  0  0  0  0
   -2.9055   -0.4217    0.0000 C   0  0  0  0  0  0  0  0  0  0  0  0
   -3.4888    0.1616    0.0000 C   0  0  0  0  0  0  0  0  0  0  0  0
   -3.2753    0.9585    0.0000 O   0  0  0  0  0  0  0  0  0  0  0  0
   -4.2857   -0.0519    0.0000 O   0  0  0  0  0  0  0  0  0  0  0  0
   -0.5148    0.2189    0.0000 C   0  0  0  0  0  0  0  0  0  0  0  0
   -0.7283   -0.5780    0.0000 O   0  0  0  0  0  0  0  0  0  0  0  0
    0.2821    0.4324    0.0000 N   0  0  0  0  0  0  0  0  0  0  0  0
    0.8655   -0.1510    0.0000 C   0  0  1  0  0  0  0  0  0  0  0  0
    1.6905   -0.1510    0.0000 C   0  0  1  0  0  0  0  0  0  0  0  0
    2.4049    0.2615    0.0000 S   0  0  0  0  0  0  0  0  0  0  0  0
    3.1194   -0.1510    0.0000 C   0  0  0  0  0  0  0  0  0  0  0  0
    3.1194   -0.9760    0.0000 C   0  0  0  0  0  0  0  0  0  0  0  0
    3.8339   -1.3885    0.0000 C   0  0  0  0  0  0  0  0  0  0  0  0
    4.5483   -0.9760    0.0000 C   0  0  0  0  0  0  0  0  0  0  0  0
    2.4049   -1.3885    0.0000 C   0  0  0  0  0  0  0  0  0  0  0  0
    1.6905   -0.9760    0.0000 N   0  0  0  0  0  0  0  0  0  0  0  0
    0.8655   -0.9760    0.0000 C   0  0  0  0  0  0  0  0  0  0  0  0
    0.2821   -1.5593    0.0000 O   0  0  0  0  0  0  0  0  0  0  0  0
    2.4049   -2.2135    0.0000 C   0  0  0  0  0  0  0  0  0  0  0  0
    1.6905   -2.6260    0.0000 O   0  0  0  0  0  0  0  0  0  0  0  0
    3.1194   -2.6260    0.0000 O   0  0  0  0  0  0  0  0  0  0  0  0
  1  2  1  0  0  0  0
  2  3  4  0  0  0  0
  3  4  4  0  0  0  0
  4  5  4  0  0  0  0
  5  6  4  0  0  0  0
  2  6  4  0  0  0  0
  4  7  1  0  0  0  0
  7  8  2  0  0  0  0
  8  9  1  0  0  0  0
  9 10  1  0  0  0  0
 10 11  1  0  0  0  0
 11 12  1  0  0  0  0
 11 13  2  0  0  0  0
  7 14  1  0  0  0  0
 14 15  2  0  0  0  0
 14 16  1  0  0  0  0
 17 16  1  1  0  0  0
 17 18  1  0  0  0  0
 18 19  1  0  0  0  0
 19 20  1  0  0  0  0
 20 21  1  0  0  0  0
 21 22  1  0  0  0  0
 22 23  2  0  0  0  0
 21 24  2  0  0  0  0
 24 25  1  0  0  0  0
 18 25  1  1  0  0  0
 25 26  1  0  0  0  0
 17 26  1  0  0  0  0
 26 27  2  0  0  0  0
 24 28  1  0  0  0  0
 28 29  1  0  0  0  0
 28 30  2  0  0  0  0
M  END
>  <ID>
537

>  <PREFERRED_NAME>
cefixime

>  <CAS_RN>
79350-37-1

>  <SYNONYMS>
cefixime
cefixim
cefiximine
cefixoral

>  <URL>
http://drugcentral.org/drugcard/537/view

$$$$
