cefmetazole
  -INDIGO-06102310562D

 30 32  0  0  1  0  0  0  0  0999 V2000
   -1.0164   -3.7934    0.0000 C   0  0  0  0  0  0  0  0  0  0  0  0
   -0.3020   -3.3809    0.0000 O   0  0  0  0  0  0  0  0  0  0  0  0
    0.4125   -3.7934    0.0000 C   0  0  2  0  0  0  0  0  0  0  0  0
    0.8250   -3.0789    0.0000 N   0  0  0  0  0  0  0  0  0  0  0  0
    0.4125   -2.3645    0.0000 C   0  0  0  0  0  0  0  0  0  0  0  0
   -0.4125   -2.3645    0.0000 O   0  0  0  0  0  0  0  0  0  0  0  0
    0.8250   -1.6500    0.0000 C   0  0  0  0  0  0  0  0  0  0  0  0
    1.6500   -1.6500    0.0000 S   0  0  0  0  0  0  0  0  0  0  0  0
    2.0625   -2.3645    0.0000 C   0  0  0  0  0  0  0  0  0  0  0  0
    2.8875   -2.3645    0.0000 C   0  0  0  0  0  0  0  0  0  0  0  0
    3.7125   -2.3645    0.0000 N   0  0  0  0  0  0  0  0  0  0  0  0
    1.1270   -4.2059    0.0000 C   0  0  1  0  0  0  0  0  0  0  0  0
    1.9520   -4.2059    0.0000 S   0  0  0  0  0  0  0  0  0  0  0  0
    2.3645   -4.9204    0.0000 C   0  0  0  0  0  0  0  0  0  0  0  0
    1.9520   -5.6349    0.0000 C   0  0  0  0  0  0  0  0  0  0  0  0
    2.3645   -6.3493    0.0000 C   0  0  0  0  0  0  0  0  0  0  0  0
    3.1895   -6.3493    0.0000 S   0  0  0  0  0  0  0  0  0  0  0  0
    3.6020   -7.0638    0.0000 C   0  0  0  0  0  0  0  0  0  0  0  0
    4.4225   -7.1500    0.0000 N   0  0  0  0  0  0  0  0  0  0  0  0
    4.5940   -7.9570    0.0000 N   0  0  0  0  0  0  0  0  0  0  0  0
    3.8795   -8.3695    0.0000 N   0  0  0  0  0  0  0  0  0  0  0  0
    3.2664   -7.8175    0.0000 N   0  0  0  0  0  0  0  0  0  0  0  0
    2.4594   -7.9890    0.0000 C   0  0  0  0  0  0  0  0  0  0  0  0
    1.1270   -5.6349    0.0000 C   0  0  0  0  0  0  0  0  0  0  0  0
    0.7145   -4.9204    0.0000 N   0  0  0  0  0  0  0  0  0  0  0  0
    0.0000   -4.5079    0.0000 C   0  0  0  0  0  0  0  0  0  0  0  0
   -0.7969   -4.7214    0.0000 O   0  0  0  0  0  0  0  0  0  0  0  0
    0.7145   -6.3493    0.0000 C   0  0  0  0  0  0  0  0  0  0  0  0
   -0.1105   -6.3493    0.0000 O   0  0  0  0  0  0  0  0  0  0  0  0
    1.1270   -7.0638    0.0000 O   0  0  0  0  0  0  0  0  0  0  0  0
  1  2  1  0  0  0  0
  3  2  1  6  0  0  0
  3  4  1  1  0  0  0
  4  5  1  0  0  0  0
  5  6  2  0  0  0  0
  5  7  1  0  0  0  0
  7  8  1  0  0  0  0
  8  9  1  0  0  0  0
  9 10  1  0  0  0  0
 10 11  3  0  0  0  0
  3 12  1  0  0  0  0
 12 13  1  0  0  0  0
 13 14  1  0  0  0  0
 14 15  1  0  0  0  0
 15 16  1  0  0  0  0
 16 17  1  0  0  0  0
 17 18  1  0  0  0  0
 18 19  4  0  0  0  0
 19 20  4  0  0  0  0
 20 21  4  0  0  0  0
 21 22  4  0  0  0  0
 18 22  4  0  0  0  0
 22 23  1  0  0  0  0
 15 24  2  0  0  0  0
 24 25  1  0  0  0  0
 12 25  1  1  0  0  0
 25 26  1  0  0  0  0
  3 26  1  0  0  0  0
 26 27  2  0  0  0  0
 24 28  1  0  0  0  0
 28 29  1  0  0  0  0
 28 30  2  0  0  0  0
M  END
>  <ID>
539

>  <PREFERRED_NAME>
cefmetazole

>  <CAS_RN>
56796-20-4

>  <SYNONYMS>
cefmetazole
cefmetazole sodium
cefmetazole sodium salt

>  <URL>
http://drugcentral.org/drugcard/539/view

$$$$
