cefminox
  -INDIGO-06102310562D

 33 35  0  0  1  0  0  0  0  0999 V2000
   -1.4289   -2.2539    0.0000 C   0  0  0  0  0  0  0  0  0  0  0  0
   -0.7145   -1.8414    0.0000 O   0  0  0  0  0  0  0  0  0  0  0  0
    0.0000   -2.2539    0.0000 C   0  0  2  0  0  0  0  0  0  0  0  0
    0.4125   -1.5395    0.0000 N   0  0  0  0  0  0  0  0  0  0  0  0
    0.0000   -0.8250    0.0000 C   0  0  0  0  0  0  0  0  0  0  0  0
   -0.8250   -0.8250    0.0000 O   0  0  0  0  0  0  0  0  0  0  0  0
    0.4125   -0.1105    0.0000 C   0  0  0  0  0  0  0  0  0  0  0  0
    1.2375   -0.1105    0.0000 S   0  0  0  0  0  0  0  0  0  0  0  0
    1.6500   -0.8250    0.0000 C   0  0  0  0  0  0  0  0  0  0  0  0
    2.4750   -0.8250    0.0000 C   0  0  1  0  0  0  0  0  0  0  0  0
    2.8875   -0.1105    0.0000 N   0  0  0  0  0  0  0  0  0  0  0  0
    2.8875   -1.5395    0.0000 C   0  0  0  0  0  0  0  0  0  0  0  0
    3.7125   -1.5395    0.0000 O   0  0  0  0  0  0  0  0  0  0  0  0
    2.4750   -2.2539    0.0000 O   0  0  0  0  0  0  0  0  0  0  0  0
    0.7145   -2.6664    0.0000 C   0  0  1  0  0  0  0  0  0  0  0  0
    1.5395   -2.6664    0.0000 S   0  0  0  0  0  0  0  0  0  0  0  0
    1.9520   -3.3809    0.0000 C   0  0  0  0  0  0  0  0  0  0  0  0
    1.5395   -4.0954    0.0000 C   0  0  0  0  0  0  0  0  0  0  0  0
    1.9520   -4.8099    0.0000 C   0  0  0  0  0  0  0  0  0  0  0  0
    2.7770   -4.8099    0.0000 S   0  0  0  0  0  0  0  0  0  0  0  0
    3.1895   -5.5243    0.0000 C   0  0  0  0  0  0  0  0  0  0  0  0
    4.0100   -5.6106    0.0000 N   0  0  0  0  0  0  0  0  0  0  0  0
    4.1815   -6.4175    0.0000 N   0  0  0  0  0  0  0  0  0  0  0  0
    3.4670   -6.8300    0.0000 N   0  0  0  0  0  0  0  0  0  0  0  0
    2.8539   -6.2780    0.0000 N   0  0  0  0  0  0  0  0  0  0  0  0
    2.0469   -6.4495    0.0000 C   0  0  0  0  0  0  0  0  0  0  0  0
    0.7145   -4.0954    0.0000 C   0  0  0  0  0  0  0  0  0  0  0  0
    0.3020   -3.3809    0.0000 N   0  0  0  0  0  0  0  0  0  0  0  0
   -0.4125   -2.9684    0.0000 C   0  0  0  0  0  0  0  0  0  0  0  0
   -1.2094   -3.1819    0.0000 O   0  0  0  0  0  0  0  0  0  0  0  0
    0.3020   -4.8099    0.0000 C   0  0  0  0  0  0  0  0  0  0  0  0
   -0.5230   -4.8099    0.0000 O   0  0  0  0  0  0  0  0  0  0  0  0
    0.7145   -5.5243    0.0000 O   0  0  0  0  0  0  0  0  0  0  0  0
  1  2  1  0  0  0  0
  3  2  1  6  0  0  0
  3  4  1  1  0  0  0
  4  5  1  0  0  0  0
  5  6  2  0  0  0  0
  5  7  1  0  0  0  0
  7  8  1  0  0  0  0
  8  9  1  0  0  0  0
  9 10  1  0  0  0  0
 10 11  1  1  0  0  0
 10 12  1  0  0  0  0
 12 13  1  0  0  0  0
 12 14  2  0  0  0  0
  3 15  1  0  0  0  0
 15 16  1  0  0  0  0
 16 17  1  0  0  0  0
 17 18  1  0  0  0  0
 18 19  1  0  0  0  0
 19 20  1  0  0  0  0
 20 21  1  0  0  0  0
 21 22  4  0  0  0  0
 22 23  4  0  0  0  0
 23 24  4  0  0  0  0
 24 25  4  0  0  0  0
 21 25  4  0  0  0  0
 25 26  1  0  0  0  0
 18 27  2  0  0  0  0
 27 28  1  0  0  0  0
 15 28  1  1  0  0  0
 28 29  1  0  0  0  0
  3 29  1  0  0  0  0
 29 30  2  0  0  0  0
 27 31  1  0  0  0  0
 31 32  1  0  0  0  0
 31 33  2  0  0  0  0
M  END
>  <ID>
540

>  <PREFERRED_NAME>
cefminox

>  <CAS_RN>
84305-41-9

>  <SYNONYMS>
cefminox

>  <URL>
http://drugcentral.org/drugcard/540/view

$$$$
