cefoperazone
  -INDIGO-06102310572D

 44 48  0  0  1  0  0  0  0  0999 V2000
   -5.8795   -0.4789    0.0000 C   0  0  0  0  0  0  0  0  0  0  0  0
   -5.6660    0.3179    0.0000 C   0  0  0  0  0  0  0  0  0  0  0  0
   -4.8691    0.5315    0.0000 N   0  0  0  0  0  0  0  0  0  0  0  0
   -4.6556    1.3284    0.0000 C   0  0  0  0  0  0  0  0  0  0  0  0
   -3.8587    1.5419    0.0000 C   0  0  0  0  0  0  0  0  0  0  0  0
   -3.2753    0.9585    0.0000 N   0  0  0  0  0  0  0  0  0  0  0  0
   -2.4784    1.1721    0.0000 C   0  0  0  0  0  0  0  0  0  0  0  0
   -2.2649    1.9689    0.0000 O   0  0  0  0  0  0  0  0  0  0  0  0
   -1.8950    0.5887    0.0000 N   0  0  0  0  0  0  0  0  0  0  0  0
   -1.0982    0.8022    0.0000 C   0  0  1  0  0  0  0  0  0  0  0  0
   -0.5148    0.2189    0.0000 C   0  0  0  0  0  0  0  0  0  0  0  0
   -0.7283   -0.5780    0.0000 O   0  0  0  0  0  0  0  0  0  0  0  0
    0.2821    0.4324    0.0000 N   0  0  0  0  0  0  0  0  0  0  0  0
    0.8655   -0.1510    0.0000 C   0  0  1  0  0  0  0  0  0  0  0  0
    1.6905   -0.1510    0.0000 C   0  0  1  0  0  0  0  0  0  0  0  0
    2.4049    0.2615    0.0000 S   0  0  0  0  0  0  0  0  0  0  0  0
    3.1194   -0.1510    0.0000 C   0  0  0  0  0  0  0  0  0  0  0  0
    3.1194   -0.9760    0.0000 C   0  0  0  0  0  0  0  0  0  0  0  0
    3.8339   -1.3885    0.0000 C   0  0  0  0  0  0  0  0  0  0  0  0
    4.5483   -0.9760    0.0000 S   0  0  0  0  0  0  0  0  0  0  0  0
    5.2628   -1.3885    0.0000 C   0  0  0  0  0  0  0  0  0  0  0  0
    6.0165   -1.0529    0.0000 N   0  0  0  0  0  0  0  0  0  0  0  0
    6.5685   -1.6660    0.0000 N   0  0  0  0  0  0  0  0  0  0  0  0
    6.1560   -2.3805    0.0000 N   0  0  0  0  0  0  0  0  0  0  0  0
    5.3490   -2.2090    0.0000 N   0  0  0  0  0  0  0  0  0  0  0  0
    4.7360   -2.7610    0.0000 C   0  0  0  0  0  0  0  0  0  0  0  0
    2.4049   -1.3885    0.0000 C   0  0  0  0  0  0  0  0  0  0  0  0
    1.6905   -0.9760    0.0000 N   0  0  0  0  0  0  0  0  0  0  0  0
    0.8655   -0.9760    0.0000 C   0  0  0  0  0  0  0  0  0  0  0  0
    0.2821   -1.5593    0.0000 O   0  0  0  0  0  0  0  0  0  0  0  0
    2.4049   -2.2135    0.0000 C   0  0  0  0  0  0  0  0  0  0  0  0
    1.6905   -2.6260    0.0000 O   0  0  0  0  0  0  0  0  0  0  0  0
    3.1194   -2.6260    0.0000 O   0  0  0  0  0  0  0  0  0  0  0  0
   -0.8846    1.5991    0.0000 C   0  0  0  0  0  0  0  0  0  0  0  0
   -1.4680    2.1825    0.0000 C   0  0  0  0  0  0  0  0  0  0  0  0
   -1.2545    2.9794    0.0000 C   0  0  0  0  0  0  0  0  0  0  0  0
   -0.4576    3.1929    0.0000 C   0  0  0  0  0  0  0  0  0  0  0  0
   -0.2441    3.9898    0.0000 O   0  0  0  0  0  0  0  0  0  0  0  0
    0.1258    2.6095    0.0000 C   0  0  0  0  0  0  0  0  0  0  0  0
   -0.0877    1.8126    0.0000 C   0  0  0  0  0  0  0  0  0  0  0  0
   -3.4888    0.1616    0.0000 C   0  0  0  0  0  0  0  0  0  0  0  0
   -2.9055   -0.4217    0.0000 O   0  0  0  0  0  0  0  0  0  0  0  0
   -4.2857   -0.0519    0.0000 C   0  0  0  0  0  0  0  0  0  0  0  0
   -4.4992   -0.8488    0.0000 O   0  0  0  0  0  0  0  0  0  0  0  0
  1  2  1  0  0  0  0
  2  3  1  0  0  0  0
  3  4  1  0  0  0  0
  4  5  1  0  0  0  0
  5  6  1  0  0  0  0
  6  7  1  0  0  0  0
  7  8  2  0  0  0  0
  7  9  1  0  0  0  0
 10  9  1  6  0  0  0
 10 11  1  0  0  0  0
 11 12  2  0  0  0  0
 11 13  1  0  0  0  0
 14 13  1  1  0  0  0
 14 15  1  0  0  0  0
 15 16  1  0  0  0  0
 16 17  1  0  0  0  0
 17 18  1  0  0  0  0
 18 19  1  0  0  0  0
 19 20  1  0  0  0  0
 20 21  1  0  0  0  0
 21 22  4  0  0  0  0
 22 23  4  0  0  0  0
 23 24  4  0  0  0  0
 24 25  4  0  0  0  0
 21 25  4  0  0  0  0
 25 26  1  0  0  0  0
 18 27  2  0  0  0  0
 27 28  1  0  0  0  0
 15 28  1  1  0  0  0
 28 29  1  0  0  0  0
 14 29  1  0  0  0  0
 29 30  2  0  0  0  0
 27 31  1  0  0  0  0
 31 32  1  0  0  0  0
 31 33  2  0  0  0  0
 10 34  1  0  0  0  0
 34 35  4  0  0  0  0
 35 36  4  0  0  0  0
 36 37  4  0  0  0  0
 37 38  1  0  0  0  0
 37 39  4  0  0  0  0
 39 40  4  0  0  0  0
 34 40  4  0  0  0  0
  6 41  1  0  0  0  0
 41 42  2  0  0  0  0
 41 43  1  0  0  0  0
  3 43  1  0  0  0  0
 43 44  2  0  0  0  0
M  END
>  <ID>
543

>  <PREFERRED_NAME>
cefoperazone

>  <CAS_RN>
62893-19-0

>  <SYNONYMS>
cefoperazone
biocefazon
cefoperazine
cefobid
cephaperazon
cefoperazone sodium
cefoperazone dihydrate

>  <URL>
http://drugcentral.org/drugcard/543/view

$$$$
