cefoxitin
  -INDIGO-06102310572D

 28 30  0  0  1  0  0  0  0  0999 V2000
    1.5799    1.0865    0.0000 C   0  0  0  0  0  0  0  0  0  0  0  0
    0.8655    0.6740    0.0000 O   0  0  0  0  0  0  0  0  0  0  0  0
    0.8655   -0.1510    0.0000 C   0  0  2  0  0  0  0  0  0  0  0  0
    0.0405   -0.1510    0.0000 N   0  0  0  0  0  0  0  0  0  0  0  0
   -0.3720    0.5635    0.0000 C   0  0  0  0  0  0  0  0  0  0  0  0
   -1.1970    0.5635    0.0000 O   0  0  0  0  0  0  0  0  0  0  0  0
    0.0405    1.2780    0.0000 C   0  0  0  0  0  0  0  0  0  0  0  0
   -0.3720    1.9924    0.0000 C   0  0  0  0  0  0  0  0  0  0  0  0
   -1.1925    2.0787    0.0000 C   0  0  0  0  0  0  0  0  0  0  0  0
   -1.3641    2.8856    0.0000 C   0  0  0  0  0  0  0  0  0  0  0  0
   -0.6496    3.2981    0.0000 C   0  0  0  0  0  0  0  0  0  0  0  0
   -0.0365    2.7461    0.0000 S   0  0  0  0  0  0  0  0  0  0  0  0
    1.6905   -0.1510    0.0000 C   0  0  1  0  0  0  0  0  0  0  0  0
    2.4049    0.2615    0.0000 S   0  0  0  0  0  0  0  0  0  0  0  0
    3.1194   -0.1510    0.0000 C   0  0  0  0  0  0  0  0  0  0  0  0
    3.1194   -0.9760    0.0000 C   0  0  0  0  0  0  0  0  0  0  0  0
    3.8339   -1.3885    0.0000 C   0  0  0  0  0  0  0  0  0  0  0  0
    4.5483   -0.9760    0.0000 O   0  0  0  0  0  0  0  0  0  0  0  0
    4.5483   -0.1510    0.0000 C   0  0  0  0  0  0  0  0  0  0  0  0
    3.8339    0.2615    0.0000 N   0  0  0  0  0  0  0  0  0  0  0  0
    5.2628    0.2615    0.0000 O   0  0  0  0  0  0  0  0  0  0  0  0
    2.4049   -1.3885    0.0000 C   0  0  0  0  0  0  0  0  0  0  0  0
    1.6905   -0.9760    0.0000 N   0  0  0  0  0  0  0  0  0  0  0  0
    0.8655   -0.9760    0.0000 C   0  0  0  0  0  0  0  0  0  0  0  0
    0.2821   -1.5593    0.0000 O   0  0  0  0  0  0  0  0  0  0  0  0
    2.4049   -2.2135    0.0000 C   0  0  0  0  0  0  0  0  0  0  0  0
    1.6905   -2.6260    0.0000 O   0  0  0  0  0  0  0  0  0  0  0  0
    3.1194   -2.6260    0.0000 O   0  0  0  0  0  0  0  0  0  0  0  0
  1  2  1  0  0  0  0
  3  2  1  6  0  0  0
  3  4  1  1  0  0  0
  4  5  1  0  0  0  0
  5  6  2  0  0  0  0
  5  7  1  0  0  0  0
  7  8  1  0  0  0  0
  8  9  4  0  0  0  0
  9 10  4  0  0  0  0
 10 11  4  0  0  0  0
 11 12  4  0  0  0  0
  8 12  4  0  0  0  0
  3 13  1  0  0  0  0
 13 14  1  0  0  0  0
 14 15  1  0  0  0  0
 15 16  1  0  0  0  0
 16 17  1  0  0  0  0
 17 18  1  0  0  0  0
 18 19  1  0  0  0  0
 19 20  1  0  0  0  0
 19 21  2  0  0  0  0
 16 22  2  0  0  0  0
 22 23  1  0  0  0  0
 13 23  1  1  0  0  0
 23 24  1  0  0  0  0
  3 24  1  0  0  0  0
 24 25  2  0  0  0  0
 22 26  1  0  0  0  0
 26 27  1  0  0  0  0
 26 28  2  0  0  0  0
M  END
>  <ID>
550

>  <PREFERRED_NAME>
cefoxitin

>  <CAS_RN>
35607-66-0

>  <SYNONYMS>
cefoxitin
cefoxitin sodium
cephoxitin
cefoxitin sodium salt

>  <URL>
http://drugcentral.org/drugcard/550/view

$$$$
