cefonicid
  -INDIGO-06102310572D

 35 38  0  0  1  0  0  0  0  0999 V2000
    0.1258    2.6095    0.0000 O   0  0  0  0  0  0  0  0  0  0  0  0
   -0.0877    1.8126    0.0000 C   0  0  1  0  0  0  0  0  0  0  0  0
    0.4956    1.2293    0.0000 C   0  0  0  0  0  0  0  0  0  0  0  0
    1.2925    1.4428    0.0000 O   0  0  0  0  0  0  0  0  0  0  0  0
    0.2821    0.4324    0.0000 N   0  0  0  0  0  0  0  0  0  0  0  0
    0.8655   -0.1510    0.0000 C   0  0  1  0  0  0  0  0  0  0  0  0
    1.6905   -0.1510    0.0000 C   0  0  1  0  0  0  0  0  0  0  0  0
    2.4049    0.2615    0.0000 S   0  0  0  0  0  0  0  0  0  0  0  0
    3.1194   -0.1510    0.0000 C   0  0  0  0  0  0  0  0  0  0  0  0
    3.1194   -0.9760    0.0000 C   0  0  0  0  0  0  0  0  0  0  0  0
    3.8339   -1.3885    0.0000 C   0  0  0  0  0  0  0  0  0  0  0  0
    3.8339   -2.2135    0.0000 S   0  0  0  0  0  0  0  0  0  0  0  0
    4.5483   -2.6260    0.0000 C   0  0  0  0  0  0  0  0  0  0  0  0
    5.3020   -2.2904    0.0000 N   0  0  0  0  0  0  0  0  0  0  0  0
    5.8540   -2.9035    0.0000 N   0  0  0  0  0  0  0  0  0  0  0  0
    5.4415   -3.6180    0.0000 N   0  0  0  0  0  0  0  0  0  0  0  0
    4.6346   -3.4465    0.0000 N   0  0  0  0  0  0  0  0  0  0  0  0
    4.0215   -3.9985    0.0000 C   0  0  0  0  0  0  0  0  0  0  0  0
    4.1930   -4.8055    0.0000 S   0  0  0  0  0  0  0  0  0  0  0  0
    4.3645   -5.6124    0.0000 O   0  0  0  0  0  0  0  0  0  0  0  0
    5.0000   -4.6339    0.0000 O   0  0  0  0  0  0  0  0  0  0  0  0
    3.3860   -4.9770    0.0000 O   0  0  0  0  0  0  0  0  0  0  0  0
    2.4049   -1.3885    0.0000 C   0  0  0  0  0  0  0  0  0  0  0  0
    1.6905   -0.9760    0.0000 N   0  0  0  0  0  0  0  0  0  0  0  0
    0.8655   -0.9760    0.0000 C   0  0  0  0  0  0  0  0  0  0  0  0
    0.2821   -1.5593    0.0000 O   0  0  0  0  0  0  0  0  0  0  0  0
    2.4049   -2.2135    0.0000 C   0  0  0  0  0  0  0  0  0  0  0  0
    1.6905   -2.6260    0.0000 O   0  0  0  0  0  0  0  0  0  0  0  0
    3.1194   -2.6260    0.0000 O   0  0  0  0  0  0  0  0  0  0  0  0
   -0.8846    1.5991    0.0000 C   0  0  0  0  0  0  0  0  0  0  0  0
   -1.0982    0.8022    0.0000 C   0  0  0  0  0  0  0  0  0  0  0  0
   -1.8950    0.5887    0.0000 C   0  0  0  0  0  0  0  0  0  0  0  0
   -2.4784    1.1721    0.0000 C   0  0  0  0  0  0  0  0  0  0  0  0
   -2.2649    1.9689    0.0000 C   0  0  0  0  0  0  0  0  0  0  0  0
   -1.4680    2.1825    0.0000 C   0  0  0  0  0  0  0  0  0  0  0  0
  2  1  1  1  0  0  0
  2  3  1  0  0  0  0
  3  4  2  0  0  0  0
  3  5  1  0  0  0  0
  6  5  1  1  0  0  0
  6  7  1  0  0  0  0
  7  8  1  0  0  0  0
  8  9  1  0  0  0  0
  9 10  1  0  0  0  0
 10 11  1  0  0  0  0
 11 12  1  0  0  0  0
 12 13  1  0  0  0  0
 13 14  4  0  0  0  0
 14 15  4  0  0  0  0
 15 16  4  0  0  0  0
 16 17  4  0  0  0  0
 13 17  4  0  0  0  0
 17 18  1  0  0  0  0
 18 19  1  0  0  0  0
 19 20  1  0  0  0  0
 19 21  2  0  0  0  0
 19 22  2  0  0  0  0
 10 23  2  0  0  0  0
 23 24  1  0  0  0  0
  7 24  1  1  0  0  0
 24 25  1  0  0  0  0
  6 25  1  0  0  0  0
 25 26  2  0  0  0  0
 23 27  1  0  0  0  0
 27 28  1  0  0  0  0
 27 29  2  0  0  0  0
  2 30  1  0  0  0  0
 30 31  4  0  0  0  0
 31 32  4  0  0  0  0
 32 33  4  0  0  0  0
 33 34  4  0  0  0  0
 34 35  4  0  0  0  0
 30 35  4  0  0  0  0
M  END
>  <ID>
542

>  <PREFERRED_NAME>
cefonicid

>  <CAS_RN>
61270-58-4

>  <SYNONYMS>
cefonicid
monocid
cefonicid sodium

>  <URL>
http://drugcentral.org/drugcard/542/view

$$$$
