cefpodoxime proxetil
  -INDIGO-06102310572D

 37 39  0  0  1  0  0  0  0  0999 V2000
    0.0000    2.4750    0.0000 C   0  0  0  0  0  0  0  0  0  0  0  0
   -0.7145    2.0625    0.0000 O   0  0  0  0  0  0  0  0  0  0  0  0
   -0.7145    1.2375    0.0000 C   0  0  0  0  0  0  0  0  0  0  0  0
   -1.4289    0.8250    0.0000 C   0  0  0  0  0  0  0  0  0  0  0  0
   -1.4289    0.0000    0.0000 C   0  0  0  0  0  0  0  0  0  0  0  0
   -2.1434   -0.4125    0.0000 N   0  0  0  0  0  0  0  0  0  0  0  0
   -2.8579    0.0000    0.0000 C   0  0  2  0  0  0  0  0  0  0  0  0
   -2.8579    0.8250    0.0000 S   0  0  0  0  0  0  0  0  0  0  0  0
   -2.1434    1.2375    0.0000 C   0  0  0  0  0  0  0  0  0  0  0  0
   -3.2704   -0.7145    0.0000 C   0  0  2  0  0  0  0  0  0  0  0  0
   -4.0673   -0.9280    0.0000 N   0  0  0  0  0  0  0  0  0  0  0  0
   -4.2808   -1.7249    0.0000 C   0  0  0  0  0  0  0  0  0  0  0  0
   -3.6974   -2.3082    0.0000 O   0  0  0  0  0  0  0  0  0  0  0  0
   -5.0777   -1.9384    0.0000 C   0  0  0  0  0  0  0  0  0  0  0  0
   -5.6611   -1.3550    0.0000 N   0  0  0  0  0  0  0  0  0  0  0  0
   -5.4475   -0.5582    0.0000 O   0  0  0  0  0  0  0  0  0  0  0  0
   -6.0309    0.0252    0.0000 C   0  0  0  0  0  0  0  0  0  0  0  0
   -5.2912   -2.7353    0.0000 C   0  0  0  0  0  0  0  0  0  0  0  0
   -4.7720   -3.3764    0.0000 C   0  0  0  0  0  0  0  0  0  0  0  0
   -5.2214   -4.0683    0.0000 S   0  0  0  0  0  0  0  0  0  0  0  0
   -6.0182   -3.8548    0.0000 C   0  0  0  0  0  0  0  0  0  0  0  0
   -6.6594   -4.3740    0.0000 N   0  0  0  0  0  0  0  0  0  0  0  0
   -6.0614   -3.0310    0.0000 N   0  0  0  0  0  0  0  0  0  0  0  0
   -2.5559   -1.1270    0.0000 C   0  0  0  0  0  0  0  0  0  0  0  0
   -2.3424   -1.9239    0.0000 O   0  0  0  0  0  0  0  0  0  0  0  0
   -0.7145   -0.4125    0.0000 C   0  0  0  0  0  0  0  0  0  0  0  0
   -0.7145   -1.2375    0.0000 O   0  0  0  0  0  0  0  0  0  0  0  0
    0.0000    0.0000    0.0000 O   0  0  0  0  0  0  0  0  0  0  0  0
    0.7145   -0.4125    0.0000 C   0  0  0  0  0  0  0  0  0  0  0  0
    0.7145   -1.2375    0.0000 C   0  0  0  0  0  0  0  0  0  0  0  0
    1.4289    0.0000    0.0000 O   0  0  0  0  0  0  0  0  0  0  0  0
    2.1434   -0.4125    0.0000 C   0  0  0  0  0  0  0  0  0  0  0  0
    2.1434   -1.2375    0.0000 O   0  0  0  0  0  0  0  0  0  0  0  0
    2.8579    0.0000    0.0000 O   0  0  0  0  0  0  0  0  0  0  0  0
    3.5724   -0.4125    0.0000 C   0  0  0  0  0  0  0  0  0  0  0  0
    4.2868    0.0000    0.0000 C   0  0  0  0  0  0  0  0  0  0  0  0
    3.5724   -1.2375    0.0000 C   0  0  0  0  0  0  0  0  0  0  0  0
  1  2  1  0  0  0  0
  2  3  1  0  0  0  0
  3  4  1  0  0  0  0
  4  5  2  0  0  0  0
  5  6  1  0  0  0  0
  7  6  1  1  0  0  0
  7  8  1  0  0  0  0
  8  9  1  0  0  0  0
  4  9  1  0  0  0  0
  7 10  1  0  0  0  0
 10 11  1  1  0  0  0
 11 12  1  0  0  0  0
 12 13  2  0  0  0  0
 12 14  1  0  0  0  0
 14 15  2  0  0  0  0
 15 16  1  0  0  0  0
 16 17  1  0  0  0  0
 14 18  1  0  0  0  0
 18 19  4  0  0  0  0
 19 20  4  0  0  0  0
 20 21  4  0  0  0  0
 21 22  1  0  0  0  0
 21 23  4  0  0  0  0
 18 23  4  0  0  0  0
 10 24  1  0  0  0  0
  6 24  1  0  0  0  0
 24 25  2  0  0  0  0
  5 26  1  0  0  0  0
 26 27  2  0  0  0  0
 26 28  1  0  0  0  0
 28 29  1  0  0  0  0
 29 30  1  0  0  0  0
 29 31  1  0  0  0  0
 31 32  1  0  0  0  0
 32 33  2  0  0  0  0
 32 34  1  0  0  0  0
 34 35  1  0  0  0  0
 35 36  1  0  0  0  0
 35 37  1  0  0  0  0
M  END
>  <ID>
555

>  <PREFERRED_NAME>
cefpodoxime proxetil

>  <CAS_RN>
87239-81-4

>  <SYNONYMS>
cefpodoxime proxetil
cefpodoxime acid
cefodox
cefoprox
cephpodoxime proxetil
cepodem

>  <URL>
http://drugcentral.org/drugcard/555/view

$$$$
