cefpirome
  -INDIGO-06102310572D

 35 39  0  0  1  0  0  0  0  0999 V2000
   -0.4661   -4.1907    0.0000 C   0  0  0  0  0  0  0  0  0  0  0  0
    0.3308   -4.4042    0.0000 O   0  0  0  0  0  0  0  0  0  0  0  0
    0.5443   -5.2011    0.0000 N   0  0  0  0  0  0  0  0  0  0  0  0
    1.3412   -5.4146    0.0000 C   0  0  0  0  0  0  0  0  0  0  0  0
    1.9246   -4.8312    0.0000 C   0  0  0  0  0  0  0  0  0  0  0  0
    2.7214   -5.0448    0.0000 O   0  0  0  0  0  0  0  0  0  0  0  0
    1.7110   -4.0343    0.0000 N   0  0  0  0  0  0  0  0  0  0  0  0
    2.2944   -3.4510    0.0000 C   0  0  1  0  0  0  0  0  0  0  0  0
    3.1194   -3.4510    0.0000 C   0  0  1  0  0  0  0  0  0  0  0  0
    3.8339   -3.8635    0.0000 S   0  0  0  0  0  0  0  0  0  0  0  0
    4.5483   -3.4510    0.0000 C   0  0  0  0  0  0  0  0  0  0  0  0
    4.5483   -2.6260    0.0000 C   0  0  0  0  0  0  0  0  0  0  0  0
    5.2628   -2.2135    0.0000 C   0  0  0  0  0  0  0  0  0  0  0  0
    5.9773   -2.6260    0.0000 N   0  0  0  0  0  0  0  0  0  0  0  0
    6.6918   -2.2135    0.0000 C   0  0  0  0  0  0  0  0  0  0  0  0
    7.4062   -2.6260    0.0000 C   0  0  0  0  0  0  0  0  0  0  0  0
    7.4062   -3.4510    0.0000 C   0  0  0  0  0  0  0  0  0  0  0  0
    6.6918   -3.8635    0.0000 C   0  0  0  0  0  0  0  0  0  0  0  0
    5.9773   -3.4510    0.0000 C   0  0  0  0  0  0  0  0  0  0  0  0
    5.3642   -4.0030    0.0000 C   0  0  0  0  0  0  0  0  0  0  0  0
    5.6997   -4.7567    0.0000 C   0  0  0  0  0  0  0  0  0  0  0  0
    6.5202   -4.6705    0.0000 C   0  0  0  0  0  0  0  0  0  0  0  0
    3.8339   -2.2135    0.0000 C   0  0  0  0  0  0  0  0  0  0  0  0
    3.1194   -2.6260    0.0000 N   0  0  0  0  0  0  0  0  0  0  0  0
    2.2944   -2.6260    0.0000 C   0  0  0  0  0  0  0  0  0  0  0  0
    1.7110   -2.0426    0.0000 O   0  0  0  0  0  0  0  0  0  0  0  0
    3.8339   -1.3885    0.0000 C   0  0  0  0  0  0  0  0  0  0  0  0
    3.1194   -0.9760    0.0000 O   0  0  0  0  0  0  0  0  0  0  0  0
    4.5483   -0.9760    0.0000 O   0  0  0  0  0  0  0  0  0  0  0  0
    1.5547   -6.2115    0.0000 C   0  0  0  0  0  0  0  0  0  0  0  0
    2.3249   -6.5071    0.0000 C   0  0  0  0  0  0  0  0  0  0  0  0
    2.2818   -7.3310    0.0000 S   0  0  0  0  0  0  0  0  0  0  0  0
    1.4849   -7.5445    0.0000 C   0  0  0  0  0  0  0  0  0  0  0  0
    1.1892   -8.3147    0.0000 N   0  0  0  0  0  0  0  0  0  0  0  0
    1.0355   -6.8526    0.0000 N   0  0  0  0  0  0  0  0  0  0  0  0
  1  2  1  0  0  0  0
  2  3  1  0  0  0  0
  3  4  2  0  0  0  0
  4  5  1  0  0  0  0
  5  6  2  0  0  0  0
  5  7  1  0  0  0  0
  8  7  1  6  0  0  0
  8  9  1  0  0  0  0
  9 10  1  0  0  0  0
 10 11  1  0  0  0  0
 11 12  1  0  0  0  0
 12 13  1  0  0  0  0
 13 14  1  0  0  0  0
 14 15  4  0  0  0  0
 15 16  4  0  0  0  0
 16 17  4  0  0  0  0
 17 18  4  0  0  0  0
 18 19  4  0  0  0  0
 14 19  4  0  0  0  0
 19 20  1  0  0  0  0
 20 21  1  0  0  0  0
 21 22  1  0  0  0  0
 18 22  1  0  0  0  0
 12 23  2  0  0  0  0
 23 24  1  0  0  0  0
  9 24  1  6  0  0  0
 24 25  1  0  0  0  0
  8 25  1  0  0  0  0
 25 26  2  0  0  0  0
 23 27  1  0  0  0  0
 27 28  1  0  0  0  0
 27 29  2  0  0  0  0
  4 30  1  0  0  0  0
 30 31  4  0  0  0  0
 31 32  4  0  0  0  0
 32 33  4  0  0  0  0
 33 34  1  0  0  0  0
 33 35  4  0  0  0  0
 30 35  4  0  0  0  0
M  CHG  2  14   1  28  -1
M  END
>  <ID>
553

>  <PREFERRED_NAME>
cefpirome

>  <CAS_RN>
84957-29-9

>  <SYNONYMS>
cefpirome
cefpirome sulfate
cefrom

>  <URL>
http://drugcentral.org/drugcard/553/view

$$$$
