cefpimizole
  -INDIGO-06102311082D

 46 50  0  0  1  0  0  0  0  0999 V2000
   -4.5652    2.7509    0.0000 O   0  0  0  0  0  0  0  0  0  0  0  0
   -3.8733    2.3016    0.0000 C   0  0  0  0  0  0  0  0  0  0  0  0
   -3.1382    2.6761    0.0000 O   0  0  0  0  0  0  0  0  0  0  0  0
   -3.9164    1.4777    0.0000 C   0  0  0  0  0  0  0  0  0  0  0  0
   -3.2753    0.9585    0.0000 C   0  0  0  0  0  0  0  0  0  0  0  0
   -3.5710    0.1883    0.0000 N   0  0  0  0  0  0  0  0  0  0  0  0
   -4.3948    0.2315    0.0000 C   0  0  0  0  0  0  0  0  0  0  0  0
   -4.6083    1.0284    0.0000 N   0  0  0  0  0  0  0  0  0  0  0  0
   -2.4784    1.1721    0.0000 C   0  0  0  0  0  0  0  0  0  0  0  0
   -2.2649    1.9689    0.0000 O   0  0  0  0  0  0  0  0  0  0  0  0
   -1.8950    0.5887    0.0000 N   0  0  0  0  0  0  0  0  0  0  0  0
   -1.0982    0.8022    0.0000 C   0  0  1  0  0  0  0  0  0  0  0  0
   -0.5148    0.2189    0.0000 C   0  0  0  0  0  0  0  0  0  0  0  0
   -0.7283   -0.5780    0.0000 O   0  0  0  0  0  0  0  0  0  0  0  0
    0.2821    0.4324    0.0000 N   0  0  0  0  0  0  0  0  0  0  0  0
    0.8655   -0.1510    0.0000 C   0  0  1  0  0  0  0  0  0  0  0  0
    1.6905   -0.1510    0.0000 C   0  0  1  0  0  0  0  0  0  0  0  0
    2.4049    0.2615    0.0000 S   0  0  0  0  0  0  0  0  0  0  0  0
    3.1194   -0.1510    0.0000 C   0  0  0  0  0  0  0  0  0  0  0  0
    3.1194   -0.9760    0.0000 C   0  0  0  0  0  0  0  0  0  0  0  0
    3.8339   -1.3885    0.0000 C   0  0  0  0  0  0  0  0  0  0  0  0
    4.5483   -0.9760    0.0000 N   0  0  0  0  0  0  0  0  0  0  0  0
    4.5483   -0.1510    0.0000 C   0  0  0  0  0  0  0  0  0  0  0  0
    5.2628    0.2615    0.0000 C   0  0  0  0  0  0  0  0  0  0  0  0
    5.9773   -0.1510    0.0000 C   0  0  0  0  0  0  0  0  0  0  0  0
    6.6918    0.2615    0.0000 C   0  0  0  0  0  0  0  0  0  0  0  0
    6.6918    1.0865    0.0000 C   0  0  0  0  0  0  0  0  0  0  0  0
    5.9773    1.4990    0.0000 S   0  0  0  0  0  0  0  0  0  0  0  0
    5.2628    1.9115    0.0000 O   0  0  0  0  0  0  0  0  0  0  0  0
    6.3898    2.2135    0.0000 O   0  0  0  0  0  0  0  0  0  0  0  0
    5.5648    0.7845    0.0000 O   0  0  0  0  0  0  0  0  0  0  0  0
    5.9773   -0.9760    0.0000 C   0  0  0  0  0  0  0  0  0  0  0  0
    5.2628   -1.3885    0.0000 C   0  0  0  0  0  0  0  0  0  0  0  0
    2.4049   -1.3885    0.0000 C   0  0  0  0  0  0  0  0  0  0  0  0
    1.6905   -0.9760    0.0000 N   0  0  0  0  0  0  0  0  0  0  0  0
    0.8655   -0.9760    0.0000 C   0  0  0  0  0  0  0  0  0  0  0  0
    0.2821   -1.5593    0.0000 O   0  0  0  0  0  0  0  0  0  0  0  0
    2.4049   -2.2135    0.0000 C   0  0  0  0  0  0  0  0  0  0  0  0
    1.6905   -2.6260    0.0000 O   0  0  0  0  0  0  0  0  0  0  0  0
    3.1194   -2.6260    0.0000 O   0  0  0  0  0  0  0  0  0  0  0  0
   -0.8846    1.5991    0.0000 C   0  0  0  0  0  0  0  0  0  0  0  0
   -1.4680    2.1825    0.0000 C   0  0  0  0  0  0  0  0  0  0  0  0
   -1.2545    2.9794    0.0000 C   0  0  0  0  0  0  0  0  0  0  0  0
   -0.4576    3.1929    0.0000 C   0  0  0  0  0  0  0  0  0  0  0  0
    0.1258    2.6095    0.0000 C   0  0  0  0  0  0  0  0  0  0  0  0
   -0.0877    1.8126    0.0000 C   0  0  0  0  0  0  0  0  0  0  0  0
  1  2  1  0  0  0  0
  2  3  2  0  0  0  0
  2  4  1  0  0  0  0
  4  5  4  0  0  0  0
  5  6  4  0  0  0  0
  6  7  4  0  0  0  0
  7  8  4  0  0  0  0
  4  8  4  0  0  0  0
  5  9  1  0  0  0  0
  9 10  2  0  0  0  0
  9 11  1  0  0  0  0
 12 11  1  6  0  0  0
 12 13  1  0  0  0  0
 13 14  2  0  0  0  0
 13 15  1  0  0  0  0
 16 15  1  1  0  0  0
 16 17  1  0  0  0  0
 17 18  1  0  0  0  0
 18 19  1  0  0  0  0
 19 20  1  0  0  0  0
 20 21  1  0  0  0  0
 21 22  1  0  0  0  0
 22 23  4  0  0  0  0
 23 24  4  0  0  0  0
 24 25  4  0  0  0  0
 25 26  1  0  0  0  0
 26 27  1  0  0  0  0
 27 28  1  0  0  0  0
 28 29  1  0  0  0  0
 28 30  2  0  0  0  0
 28 31  2  0  0  0  0
 25 32  4  0  0  0  0
 32 33  4  0  0  0  0
 22 33  4  0  0  0  0
 20 34  2  0  0  0  0
 34 35  1  0  0  0  0
 17 35  1  1  0  0  0
 35 36  1  0  0  0  0
 16 36  1  0  0  0  0
 36 37  2  0  0  0  0
 34 38  1  0  0  0  0
 38 39  1  0  0  0  0
 38 40  2  0  0  0  0
 12 41  1  0  0  0  0
 41 42  4  0  0  0  0
 42 43  4  0  0  0  0
 43 44  4  0  0  0  0
 44 45  4  0  0  0  0
 45 46  4  0  0  0  0
 41 46  4  0  0  0  0
M  CHG  2  22   1  29  -1
M  STY  1   1 DAT
M  SLB  1   1   1
M  SAL   1  1   8
M  SDT   1 MRV_IMPLICIT_H
M  SDD   1     0.0000    0.0000    DA    ALL  1       1
M  SED   1 IMPL_H1
M  END
>  <ID>
3075

>  <PREFERRED_NAME>
cefpimizole

>  <CAS_RN>
84880-03-5

>  <SYNONYMS>
cefpimizole
cefpimizole sodium
cefpimizol
cefpimizole disodium

>  <URL>
http://drugcentral.org/drugcard/3075/view

$$$$
