ceftiofur
  -INDIGO-06102311242D

 35 38  0  0  1  0  0  0  0  0999 V2000
    1.4769    0.6459    0.0000 H   0  0  0  0  0  0  0  0  0  0  0  0
    1.6905   -0.1510    0.0000 C   0  0  1  0  0  0  0  0  0  0  0  0
    2.4049    0.2615    0.0000 S   0  0  0  0  0  0  0  0  0  0  0  0
    3.1194   -0.1510    0.0000 C   0  0  0  0  0  0  0  0  0  0  0  0
    3.1194   -0.9760    0.0000 C   0  0  0  0  0  0  0  0  0  0  0  0
    3.8339   -1.3885    0.0000 C   0  0  0  0  0  0  0  0  0  0  0  0
    3.8339   -2.2135    0.0000 S   0  0  0  0  0  0  0  0  0  0  0  0
    4.5483   -2.6260    0.0000 C   0  0  0  0  0  0  0  0  0  0  0  0
    5.2628   -2.2135    0.0000 O   0  0  0  0  0  0  0  0  0  0  0  0
    4.5483   -3.4510    0.0000 C   0  0  0  0  0  0  0  0  0  0  0  0
    5.2158   -3.9359    0.0000 C   0  0  0  0  0  0  0  0  0  0  0  0
    4.9608   -4.7205    0.0000 C   0  0  0  0  0  0  0  0  0  0  0  0
    4.1358   -4.7205    0.0000 C   0  0  0  0  0  0  0  0  0  0  0  0
    3.8809   -3.9359    0.0000 O   0  0  0  0  0  0  0  0  0  0  0  0
    2.4049   -1.3885    0.0000 C   0  0  0  0  0  0  0  0  0  0  0  0
    1.6905   -0.9760    0.0000 N   0  0  0  0  0  0  0  0  0  0  0  0
    0.8655   -0.9760    0.0000 C   0  0  0  0  0  0  0  0  0  0  0  0
    0.2821   -1.5593    0.0000 O   0  0  0  0  0  0  0  0  0  0  0  0
    0.8655   -0.1510    0.0000 C   0  0  1  0  0  0  0  0  0  0  0  0
    0.2821    0.4324    0.0000 N   0  0  0  0  0  0  0  0  0  0  0  0
   -0.5148    0.2189    0.0000 C   0  0  0  0  0  0  0  0  0  0  0  0
   -0.7283   -0.5780    0.0000 O   0  0  0  0  0  0  0  0  0  0  0  0
   -1.0982    0.8022    0.0000 C   0  0  0  0  0  0  0  0  0  0  0  0
   -0.8846    1.5991    0.0000 N   0  0  0  0  0  0  0  0  0  0  0  0
   -0.0877    1.8126    0.0000 O   0  0  0  0  0  0  0  0  0  0  0  0
    0.1258    2.6095    0.0000 C   0  0  0  0  0  0  0  0  0  0  0  0
   -1.8950    0.5887    0.0000 C   0  0  0  0  0  0  0  0  0  0  0  0
   -2.1907   -0.1815    0.0000 C   0  0  0  0  0  0  0  0  0  0  0  0
   -3.0146   -0.1383    0.0000 S   0  0  0  0  0  0  0  0  0  0  0  0
   -3.2281    0.6586    0.0000 C   0  0  0  0  0  0  0  0  0  0  0  0
   -3.9983    0.9542    0.0000 N   0  0  0  0  0  0  0  0  0  0  0  0
   -2.5362    1.1079    0.0000 N   0  0  0  0  0  0  0  0  0  0  0  0
    2.4049   -2.2135    0.0000 C   0  0  0  0  0  0  0  0  0  0  0  0
    1.6905   -2.6260    0.0000 O   0  0  0  0  0  0  0  0  0  0  0  0
    3.1194   -2.6260    0.0000 O   0  0  0  0  0  0  0  0  0  0  0  0
  2  1  1  6  0  0  0
  2  3  1  0  0  0  0
  3  4  1  0  0  0  0
  4  5  1  0  0  0  0
  5  6  1  0  0  0  0
  6  7  1  0  0  0  0
  7  8  1  0  0  0  0
  8  9  2  0  0  0  0
  8 10  1  0  0  0  0
 10 11  4  0  0  0  0
 11 12  4  0  0  0  0
 12 13  4  0  0  0  0
 13 14  4  0  0  0  0
 10 14  4  0  0  0  0
  5 15  2  0  0  0  0
 15 16  1  0  0  0  0
  2 16  1  0  0  0  0
 16 17  1  0  0  0  0
 17 18  2  0  0  0  0
 17 19  1  0  0  0  0
  2 19  1  0  0  0  0
 19 20  1  1  0  0  0
 20 21  1  0  0  0  0
 21 22  2  0  0  0  0
 21 23  1  0  0  0  0
 23 24  2  0  0  0  0
 24 25  1  0  0  0  0
 25 26  1  0  0  0  0
 23 27  1  0  0  0  0
 27 28  4  0  0  0  0
 28 29  4  0  0  0  0
 29 30  4  0  0  0  0
 30 31  1  0  0  0  0
 30 32  4  0  0  0  0
 27 32  4  0  0  0  0
 15 33  1  0  0  0  0
 33 34  1  0  0  0  0
 33 35  2  0  0  0  0
M  END
>  <ID>
5663

>  <PREFERRED_NAME>
ceftiofur

>  <CAS_RN>
80370-57-6

>  <SYNONYMS>
ceftiofur
naxcel
ceftiofur sodium
ceftiofur hydrochloride
ceftiofur crystalline free acid

>  <URL>
http://drugcentral.org/drugcard/5663/view

$$$$
