ceftaroline fosamil
  -INDIGO-06102311112D

 43 47  0  0  1  0  0  0  0  0999 V2000
    0.9227    2.8230    0.0000 C   0  0  0  0  0  0  0  0  0  0  0  0
    0.1258    2.6095    0.0000 C   0  0  0  0  0  0  0  0  0  0  0  0
   -0.0877    1.8126    0.0000 O   0  0  0  0  0  0  0  0  0  0  0  0
   -0.8846    1.5991    0.0000 N   0  0  0  0  0  0  0  0  0  0  0  0
   -1.0982    0.8022    0.0000 C   0  0  0  0  0  0  0  0  0  0  0  0
   -0.5148    0.2189    0.0000 C   0  0  0  0  0  0  0  0  0  0  0  0
   -0.7283   -0.5780    0.0000 O   0  0  0  0  0  0  0  0  0  0  0  0
    0.2821    0.4324    0.0000 N   0  0  0  0  0  0  0  0  0  0  0  0
    0.8655   -0.1510    0.0000 C   0  0  1  0  0  0  0  0  0  0  0  0
    1.6905   -0.1510    0.0000 C   0  0  1  0  0  0  0  0  0  0  0  0
    2.4049    0.2615    0.0000 S   0  0  0  0  0  0  0  0  0  0  0  0
    3.1194   -0.1510    0.0000 C   0  0  0  0  0  0  0  0  0  0  0  0
    3.1194   -0.9760    0.0000 C   0  0  0  0  0  0  0  0  0  0  0  0
    3.8339   -1.3885    0.0000 S   0  0  0  0  0  0  0  0  0  0  0  0
    4.5483   -0.9760    0.0000 C   0  0  0  0  0  0  0  0  0  0  0  0
    4.6346   -0.1555    0.0000 N   0  0  0  0  0  0  0  0  0  0  0  0
    5.4415    0.0160    0.0000 C   0  0  0  0  0  0  0  0  0  0  0  0
    5.8540   -0.6984    0.0000 C   0  0  0  0  0  0  0  0  0  0  0  0
    5.3020   -1.3115    0.0000 S   0  0  0  0  0  0  0  0  0  0  0  0
    5.7771    0.7697    0.0000 C   0  0  0  0  0  0  0  0  0  0  0  0
    5.2922    1.4371    0.0000 C   0  0  0  0  0  0  0  0  0  0  0  0
    5.6277    2.1908    0.0000 C   0  0  0  0  0  0  0  0  0  0  0  0
    6.4482    2.2770    0.0000 N   0  0  0  0  0  0  0  0  0  0  0  0
    6.7838    3.0307    0.0000 C   0  0  0  0  0  0  0  0  0  0  0  0
    6.9331    1.6096    0.0000 C   0  0  0  0  0  0  0  0  0  0  0  0
    6.5976    0.8559    0.0000 C   0  0  0  0  0  0  0  0  0  0  0  0
    2.4049   -1.3885    0.0000 C   0  0  0  0  0  0  0  0  0  0  0  0
    1.6905   -0.9760    0.0000 N   0  0  0  0  0  0  0  0  0  0  0  0
    0.8655   -0.9760    0.0000 C   0  0  0  0  0  0  0  0  0  0  0  0
    0.2821   -1.5593    0.0000 O   0  0  0  0  0  0  0  0  0  0  0  0
    2.4049   -2.2135    0.0000 C   0  0  0  0  0  0  0  0  0  0  0  0
    1.6905   -2.6260    0.0000 O   0  0  0  0  0  0  0  0  0  0  0  0
    3.1194   -2.6260    0.0000 O   0  0  0  0  0  0  0  0  0  0  0  0
   -1.8950    0.5887    0.0000 C   0  0  0  0  0  0  0  0  0  0  0  0
   -2.1907   -0.1815    0.0000 N   0  0  0  0  0  0  0  0  0  0  0  0
   -3.0146   -0.1383    0.0000 S   0  0  0  0  0  0  0  0  0  0  0  0
   -3.2281    0.6586    0.0000 C   0  0  0  0  0  0  0  0  0  0  0  0
   -3.9983    0.9542    0.0000 N   0  0  0  0  0  0  0  0  0  0  0  0
   -4.6394    0.4350    0.0000 P   0  0  0  0  0  0  0  0  0  0  0  0
   -5.2806   -0.0842    0.0000 O   0  0  0  0  0  0  0  0  0  0  0  0
   -5.1586    1.0762    0.0000 O   0  0  0  0  0  0  0  0  0  0  0  0
   -4.1203   -0.2061    0.0000 O   0  0  0  0  0  0  0  0  0  0  0  0
   -2.5362    1.1079    0.0000 N   0  0  0  0  0  0  0  0  0  0  0  0
  1  2  1  0  0  0  0
  2  3  1  0  0  0  0
  3  4  1  0  0  0  0
  4  5  2  0  0  0  0
  5  6  1  0  0  0  0
  6  7  2  0  0  0  0
  6  8  1  0  0  0  0
  9  8  1  1  0  0  0
  9 10  1  0  0  0  0
 10 11  1  0  0  0  0
 11 12  1  0  0  0  0
 12 13  1  0  0  0  0
 13 14  1  0  0  0  0
 14 15  1  0  0  0  0
 15 16  4  0  0  0  0
 16 17  4  0  0  0  0
 17 18  4  0  0  0  0
 18 19  4  0  0  0  0
 15 19  4  0  0  0  0
 17 20  1  0  0  0  0
 20 21  4  0  0  0  0
 21 22  4  0  0  0  0
 22 23  4  0  0  0  0
 23 24  1  0  0  0  0
 23 25  4  0  0  0  0
 25 26  4  0  0  0  0
 20 26  4  0  0  0  0
 13 27  2  0  0  0  0
 27 28  1  0  0  0  0
 10 28  1  1  0  0  0
 28 29  1  0  0  0  0
  9 29  1  0  0  0  0
 29 30  2  0  0  0  0
 27 31  1  0  0  0  0
 31 32  1  0  0  0  0
 31 33  2  0  0  0  0
  5 34  1  0  0  0  0
 34 35  4  0  0  0  0
 35 36  4  0  0  0  0
 36 37  4  0  0  0  0
 37 38  1  0  0  0  0
 38 39  1  0  0  0  0
 39 40  1  0  0  0  0
 39 41  1  0  0  0  0
 39 42  2  0  0  0  0
 37 43  4  0  0  0  0
 34 43  4  0  0  0  0
M  CHG  2  23   1  32  -1
M  END
>  <ID>
4169

>  <PREFERRED_NAME>
ceftaroline fosamil

>  <CAS_RN>
402741-13-3

>  <SYNONYMS>
ceftaroline fosamil
zinforo
ceftaroline fosamil acetate
ceftaroline fosamil acetate monohydrate
TAK 599
PPI-0903
teflaro

>  <URL>
http://drugcentral.org/drugcard/4169/view

$$$$
