cefteram pivoxil
  -INDIGO-06102310572D

 40 43  0  0  1  0  0  0  0  0999 V2000
    0.4956    1.2293    0.0000 C   0  0  0  0  0  0  0  0  0  0  0  0
   -0.0877    1.8126    0.0000 O   0  0  0  0  0  0  0  0  0  0  0  0
   -0.8846    1.5991    0.0000 N   0  0  0  0  0  0  0  0  0  0  0  0
   -1.0982    0.8022    0.0000 C   0  0  0  0  0  0  0  0  0  0  0  0
   -0.5148    0.2189    0.0000 C   0  0  0  0  0  0  0  0  0  0  0  0
   -0.7283   -0.5780    0.0000 O   0  0  0  0  0  0  0  0  0  0  0  0
    0.2821    0.4324    0.0000 N   0  0  0  0  0  0  0  0  0  0  0  0
    0.8655   -0.1510    0.0000 C   0  0  1  0  0  0  0  0  0  0  0  0
    1.6905   -0.1510    0.0000 C   0  0  1  0  0  0  0  0  0  0  0  0
    2.4049    0.2615    0.0000 S   0  0  0  0  0  0  0  0  0  0  0  0
    3.1194   -0.1510    0.0000 C   0  0  0  0  0  0  0  0  0  0  0  0
    3.1194   -0.9760    0.0000 C   0  0  0  0  0  0  0  0  0  0  0  0
    3.8339   -1.3885    0.0000 C   0  0  0  0  0  0  0  0  0  0  0  0
    4.5483   -0.9760    0.0000 N   0  0  0  0  0  0  0  0  0  0  0  0
    4.6346   -0.1555    0.0000 N   0  0  0  0  0  0  0  0  0  0  0  0
    5.4415    0.0160    0.0000 N   0  0  0  0  0  0  0  0  0  0  0  0
    5.8540   -0.6984    0.0000 C   0  0  0  0  0  0  0  0  0  0  0  0
    6.6745   -0.7847    0.0000 C   0  0  0  0  0  0  0  0  0  0  0  0
    5.3020   -1.3115    0.0000 N   0  0  0  0  0  0  0  0  0  0  0  0
    2.4049   -1.3885    0.0000 C   0  0  0  0  0  0  0  0  0  0  0  0
    1.6905   -0.9760    0.0000 N   0  0  0  0  0  0  0  0  0  0  0  0
    0.8655   -0.9760    0.0000 C   0  0  0  0  0  0  0  0  0  0  0  0
    0.2821   -1.5593    0.0000 O   0  0  0  0  0  0  0  0  0  0  0  0
    2.4049   -2.2135    0.0000 C   0  0  0  0  0  0  0  0  0  0  0  0
    1.6905   -2.6260    0.0000 O   0  0  0  0  0  0  0  0  0  0  0  0
    3.1194   -2.6260    0.0000 O   0  0  0  0  0  0  0  0  0  0  0  0
    3.1194   -3.4510    0.0000 C   0  0  0  0  0  0  0  0  0  0  0  0
    3.8339   -3.8635    0.0000 O   0  0  0  0  0  0  0  0  0  0  0  0
    3.8339   -4.6885    0.0000 C   0  0  0  0  0  0  0  0  0  0  0  0
    3.1194   -5.1010    0.0000 O   0  0  0  0  0  0  0  0  0  0  0  0
    4.5483   -5.1010    0.0000 C   0  0  0  0  0  0  0  0  0  0  0  0
    5.2628   -5.5135    0.0000 C   0  0  0  0  0  0  0  0  0  0  0  0
    4.9608   -4.3865    0.0000 C   0  0  0  0  0  0  0  0  0  0  0  0
    4.1358   -5.8155    0.0000 C   0  0  0  0  0  0  0  0  0  0  0  0
   -1.8950    0.5887    0.0000 C   0  0  0  0  0  0  0  0  0  0  0  0
   -2.1907   -0.1815    0.0000 C   0  0  0  0  0  0  0  0  0  0  0  0
   -3.0146   -0.1383    0.0000 S   0  0  0  0  0  0  0  0  0  0  0  0
   -3.2281    0.6586    0.0000 C   0  0  0  0  0  0  0  0  0  0  0  0
   -3.9983    0.9542    0.0000 N   0  0  0  0  0  0  0  0  0  0  0  0
   -2.5362    1.1079    0.0000 N   0  0  0  0  0  0  0  0  0  0  0  0
  1  2  1  0  0  0  0
  2  3  1  0  0  0  0
  3  4  2  0  0  0  0
  4  5  1  0  0  0  0
  5  6  2  0  0  0  0
  5  7  1  0  0  0  0
  8  7  1  1  0  0  0
  8  9  1  0  0  0  0
  9 10  1  0  0  0  0
 10 11  1  0  0  0  0
 11 12  1  0  0  0  0
 12 13  1  0  0  0  0
 13 14  1  0  0  0  0
 14 15  4  0  0  0  0
 15 16  4  0  0  0  0
 16 17  4  0  0  0  0
 17 18  1  0  0  0  0
 17 19  4  0  0  0  0
 14 19  4  0  0  0  0
 12 20  2  0  0  0  0
 20 21  1  0  0  0  0
  9 21  1  1  0  0  0
 21 22  1  0  0  0  0
  8 22  1  0  0  0  0
 22 23  2  0  0  0  0
 20 24  1  0  0  0  0
 24 25  2  0  0  0  0
 24 26  1  0  0  0  0
 26 27  1  0  0  0  0
 27 28  1  0  0  0  0
 28 29  1  0  0  0  0
 29 30  2  0  0  0  0
 29 31  1  0  0  0  0
 31 32  1  0  0  0  0
 31 33  1  0  0  0  0
 31 34  1  0  0  0  0
  4 35  1  0  0  0  0
 35 36  4  0  0  0  0
 36 37  4  0  0  0  0
 37 38  4  0  0  0  0
 38 39  1  0  0  0  0
 38 40  4  0  0  0  0
 35 40  4  0  0  0  0
M  END
>  <ID>
560

>  <PREFERRED_NAME>
cefteram pivoxil

>  <CAS_RN>
82547-81-7

>  <SYNONYMS>
cefteram pivoxil
tomiron

>  <URL>
http://drugcentral.org/drugcard/560/view

$$$$
