cefuroxime axetil
  -INDIGO-06102310572D

 35 37  0  0  1  0  0  0  0  0999 V2000
   -3.1730    1.6752    0.0000 C   0  0  0  0  0  0  0  0  0  0  0  0
   -2.5896    1.0918    0.0000 O   0  0  0  0  0  0  0  0  0  0  0  0
   -2.8032    0.2950    0.0000 N   0  0  0  0  0  0  0  0  0  0  0  0
   -2.2198   -0.2884    0.0000 C   0  0  0  0  0  0  0  0  0  0  0  0
   -1.4229   -0.0749    0.0000 C   0  0  0  0  0  0  0  0  0  0  0  0
   -0.8396   -0.6582    0.0000 O   0  0  0  0  0  0  0  0  0  0  0  0
   -1.2094    0.7220    0.0000 N   0  0  0  0  0  0  0  0  0  0  0  0
   -0.4125    0.9355    0.0000 C   0  0  1  0  0  0  0  0  0  0  0  0
    0.0000    1.6500    0.0000 C   0  0  1  0  0  0  0  0  0  0  0  0
    0.0000    2.4750    0.0000 S   0  0  0  0  0  0  0  0  0  0  0  0
    0.7145    2.8875    0.0000 C   0  0  0  0  0  0  0  0  0  0  0  0
    1.4289    2.4750    0.0000 C   0  0  0  0  0  0  0  0  0  0  0  0
    2.1434    2.8875    0.0000 C   0  0  0  0  0  0  0  0  0  0  0  0
    2.8579    2.4750    0.0000 O   0  0  0  0  0  0  0  0  0  0  0  0
    3.5724    2.8875    0.0000 C   0  0  0  0  0  0  0  0  0  0  0  0
    3.5724    3.7125    0.0000 N   0  0  0  0  0  0  0  0  0  0  0  0
    4.2868    2.4750    0.0000 O   0  0  0  0  0  0  0  0  0  0  0  0
    1.4289    1.6500    0.0000 C   0  0  0  0  0  0  0  0  0  0  0  0
    0.7145    1.2375    0.0000 N   0  0  0  0  0  0  0  0  0  0  0  0
    0.3020    0.5230    0.0000 C   0  0  0  0  0  0  0  0  0  0  0  0
    0.5155   -0.2739    0.0000 O   0  0  0  0  0  0  0  0  0  0  0  0
    2.1434    1.2375    0.0000 C   0  0  0  0  0  0  0  0  0  0  0  0
    2.1434    0.4125    0.0000 O   0  0  0  0  0  0  0  0  0  0  0  0
    2.8579    1.6500    0.0000 O   0  0  0  0  0  0  0  0  0  0  0  0
    3.5724    1.2375    0.0000 C   0  0  0  0  0  0  0  0  0  0  0  0
    3.5724    0.4125    0.0000 C   0  0  0  0  0  0  0  0  0  0  0  0
    4.2868    1.6500    0.0000 O   0  0  0  0  0  0  0  0  0  0  0  0
    5.0013    1.2375    0.0000 C   0  0  0  0  0  0  0  0  0  0  0  0
    5.7158    1.6500    0.0000 C   0  0  0  0  0  0  0  0  0  0  0  0
    5.0013    0.4125    0.0000 O   0  0  0  0  0  0  0  0  0  0  0  0
   -2.4333   -1.0853    0.0000 C   0  0  0  0  0  0  0  0  0  0  0  0
   -1.9141   -1.7264    0.0000 C   0  0  0  0  0  0  0  0  0  0  0  0
   -2.3635   -2.4183    0.0000 C   0  0  0  0  0  0  0  0  0  0  0  0
   -3.1604   -2.2048    0.0000 C   0  0  0  0  0  0  0  0  0  0  0  0
   -3.2035   -1.3810    0.0000 O   0  0  0  0  0  0  0  0  0  0  0  0
  1  2  1  0  0  0  0
  2  3  1  0  0  0  0
  3  4  2  0  0  0  0
  4  5  1  0  0  0  0
  5  6  2  0  0  0  0
  5  7  1  0  0  0  0
  8  7  1  1  0  0  0
  8  9  1  0  0  0  0
  9 10  1  0  0  0  0
 10 11  1  0  0  0  0
 11 12  1  0  0  0  0
 12 13  1  0  0  0  0
 13 14  1  0  0  0  0
 14 15  1  0  0  0  0
 15 16  1  0  0  0  0
 15 17  2  0  0  0  0
 12 18  2  0  0  0  0
 18 19  1  0  0  0  0
  9 19  1  1  0  0  0
 19 20  1  0  0  0  0
  8 20  1  0  0  0  0
 20 21  2  0  0  0  0
 18 22  1  0  0  0  0
 22 23  2  0  0  0  0
 22 24  1  0  0  0  0
 24 25  1  0  0  0  0
 25 26  1  0  0  0  0
 25 27  1  0  0  0  0
 27 28  1  0  0  0  0
 28 29  1  0  0  0  0
 28 30  2  0  0  0  0
  4 31  1  0  0  0  0
 31 32  4  0  0  0  0
 32 33  4  0  0  0  0
 33 34  4  0  0  0  0
 34 35  4  0  0  0  0
 31 35  4  0  0  0  0
M  END
>  <ID>
566

>  <PREFERRED_NAME>
cefuroxime axetil

>  <CAS_RN>
64544-07-6

>  <SYNONYMS>
cefuroxime axetil
cefazine
altacef
ceftin
cefurax
oraxim

>  <URL>
http://drugcentral.org/drugcard/566/view

$$$$
