cepharanthine
  -INDIGO-06102311212D

 45 52  0  0  1  0  0  0  0  0999 V2000
   13.1357   -0.1814    0.0000 C   0  0  0  0  0  0  0  0  0  0  0  0
   13.2896    0.6291    0.0000 O   0  0  0  0  0  0  0  0  0  0  0  0
   12.6646    1.1677    0.0000 C   0  0  0  0  0  0  0  0  0  0  0  0
   11.8789    0.8784    0.0000 C   0  0  0  0  0  0  0  0  0  0  0  0
   11.6320    0.0574    0.0000 O   0  0  0  0  0  0  0  0  0  0  0  0
   11.0326   -0.5609    0.0000 C   0  0  0  0  0  0  0  0  0  0  0  0
   10.4151    0.0095    0.0000 C   0  0  0  0  0  0  0  0  0  0  0  0
    9.6158   -0.1903    0.0000 C   0  0  0  0  0  0  0  0  0  0  0  0
    9.3662   -0.9855    0.0000 C   0  0  0  0  0  0  0  0  0  0  0  0
    8.5216   -0.8131    0.0000 C   0  0  0  0  0  0  0  0  0  0  0  0
    7.6607   -0.6250    0.0000 C   0  0  2  0  0  0  0  0  0  0  0  0
    7.4254   -1.4352    0.0000 N   0  0  0  0  0  0  0  0  0  0  0  0
    8.0094   -2.0179    0.0000 C   0  0  0  0  0  0  0  0  0  0  0  0
    6.6308   -1.6679    0.0000 C   0  0  0  0  0  0  0  0  0  0  0  0
    6.0362   -1.1012    0.0000 C   0  0  0  0  0  0  0  0  0  0  0  0
    6.2353   -0.2879    0.0000 C   0  0  0  0  0  0  0  0  0  0  0  0
    5.5769    0.2202    0.0000 C   0  0  0  0  0  0  0  0  0  0  0  0
    5.6814    1.0350    0.0000 C   0  0  0  0  0  0  0  0  0  0  0  0
    6.4461    1.3449    0.0000 C   0  0  0  0  0  0  0  0  0  0  0  0
    6.3877    2.1678    0.0000 O   0  0  0  0  0  0  0  0  0  0  0  0
    5.5870    2.3666    0.0000 C   0  0  0  0  0  0  0  0  0  0  0  0
    5.1505    1.6665    0.0000 O   0  0  0  0  0  0  0  0  0  0  0  0
    7.1443    0.8711    0.0000 C   0  0  0  0  0  0  0  0  0  0  0  0
    7.6164    1.6129    0.0000 O   0  0  0  0  0  0  0  0  0  0  0  0
    7.8259    2.4668    0.0000 C   0  0  0  0  0  0  0  0  0  0  0  0
    7.4167    3.2141    0.0000 C   0  0  0  0  0  0  0  0  0  0  0  0
    6.5917    3.2151    0.0000 O   0  0  0  0  0  0  0  0  0  0  0  0
    6.1801    3.9301    0.0000 C   0  0  0  0  0  0  0  0  0  0  0  0
    7.8198    3.9461    0.0000 C   0  0  0  0  0  0  0  0  0  0  0  0
    8.6637    3.9585    0.0000 C   0  0  0  0  0  0  0  0  0  0  0  0
    9.0727    4.6924    0.0000 C   0  0  0  0  0  0  0  0  0  0  0  0
    9.9036    4.7220    0.0000 C   0  0  0  0  0  0  0  0  0  0  0  0
   10.3342    4.0119    0.0000 N   0  0  0  0  0  0  0  0  0  0  0  0
   11.1584    4.0486    0.0000 C   0  0  0  0  0  0  0  0  0  0  0  0
    9.9649    3.2591    0.0000 C   0  0  2  0  0  0  0  0  0  0  0  0
   10.6426    2.7198    0.0000 C   0  0  0  0  0  0  0  0  0  0  0  0
   11.3903    2.2843    0.0000 C   0  0  0  0  0  0  0  0  0  0  0  0
   12.1993    2.5286    0.0000 C   0  0  0  0  0  0  0  0  0  0  0  0
   12.8335    1.9825    0.0000 C   0  0  0  0  0  0  0  0  0  0  0  0
   11.2640    1.4555    0.0000 C   0  0  0  0  0  0  0  0  0  0  0  0
    9.1043    3.2396    0.0000 C   0  0  0  0  0  0  0  0  0  0  0  0
    8.6653    2.5190    0.0000 C   0  0  0  0  0  0  0  0  0  0  0  0
    7.0386   -0.0067    0.0000 C   0  0  0  0  0  0  0  0  0  0  0  0
    9.9772   -1.5805    0.0000 C   0  0  0  0  0  0  0  0  0  0  0  0
   10.7819   -1.3677    0.0000 C   0  0  0  0  0  0  0  0  0  0  0  0
  1  2  1  0  0  0  0
  2  3  1  0  0  0  0
  3  4  4  0  0  0  0
  4  5  1  0  0  0  0
  5  6  1  0  0  0  0
  6  7  4  0  0  0  0
  7  8  4  0  0  0  0
  8  9  4  0  0  0  0
  9 10  1  0  0  0  0
 10 11  1  0  0  0  0
 11 12  1  6  0  0  0
 12 13  1  0  0  0  0
 12 14  1  0  0  0  0
 14 15  1  0  0  0  0
 15 16  1  0  0  0  0
 16 17  4  0  0  0  0
 17 18  4  0  0  0  0
 18 19  4  0  0  0  0
 19 20  1  0  0  0  0
 20 21  1  0  0  0  0
 21 22  1  0  0  0  0
 18 22  1  0  0  0  0
 19 23  4  0  0  0  0
 23 24  1  0  0  0  0
 24 25  1  0  0  0  0
 25 26  4  0  0  0  0
 26 27  1  0  0  0  0
 27 28  1  0  0  0  0
 26 29  4  0  0  0  0
 29 30  4  0  0  0  0
 30 31  1  0  0  0  0
 31 32  1  0  0  0  0
 32 33  1  0  0  0  0
 33 34  1  0  0  0  0
 35 33  1  6  0  0  0
 35 36  1  0  0  0  0
 36 37  1  0  0  0  0
 37 38  4  0  0  0  0
 38 39  4  0  0  0  0
  3 39  4  0  0  0  0
 37 40  4  0  0  0  0
  4 40  4  0  0  0  0
 35 41  1  0  0  0  0
 30 41  4  0  0  0  0
 41 42  4  0  0  0  0
 25 42  4  0  0  0  0
 23 43  4  0  0  0  0
 11 43  1  0  0  0  0
 16 43  4  0  0  0  0
  9 44  4  0  0  0  0
 44 45  4  0  0  0  0
  6 45  4  0  0  0  0
M  END
>  <ID>
5375

>  <PREFERRED_NAME>
cepharanthine

>  <CAS_RN>
481-49-2

>  <SYNONYMS>
cepharanthine
cepharanthin

>  <URL>
http://drugcentral.org/drugcard/5375/view

$$$$
