cerulenin
  -INDIGO-06102310572D

 16 16  0  0  1  0  0  0  0  0999 V2000
    4.5250    1.7138    0.0000 C   0  0  0  0  0  0  0  0  0  0  0  0
    3.8105    2.1263    0.0000 C   0  0  0  0  0  0  0  0  0  0  0  0
    3.8105    2.9513    0.0000 C   0  0  0  0  0  0  0  0  0  0  0  0
    3.0960    3.3638    0.0000 C   0  0  0  0  0  0  0  0  0  0  0  0
    2.3816    2.9513    0.0000 C   0  0  0  0  0  0  0  0  0  0  0  0
    1.6671    3.3638    0.0000 C   0  0  0  0  0  0  0  0  0  0  0  0
    0.9526    2.9513    0.0000 C   0  0  0  0  0  0  0  0  0  0  0  0
    0.9526    2.1263    0.0000 C   0  0  0  0  0  0  0  0  0  0  0  0
    0.2382    1.7138    0.0000 C   0  0  0  0  0  0  0  0  0  0  0  0
   -0.4763    2.1263    0.0000 O   0  0  0  0  0  0  0  0  0  0  0  0
    0.2382    0.8888    0.0000 C   0  0  1  0  0  0  0  0  0  0  0  0
    0.6507    0.1743    0.0000 O   0  0  0  0  0  0  0  0  0  0  0  0
   -0.1743    0.1743    0.0000 C   0  0  1  0  0  0  0  0  0  0  0  0
   -0.8888   -0.2382    0.0000 C   0  0  0  0  0  0  0  0  0  0  0  0
   -0.8888   -1.0632    0.0000 N   0  0  0  0  0  0  0  0  0  0  0  0
   -1.6033    0.1743    0.0000 O   0  0  0  0  0  0  0  0  0  0  0  0
  1  2  1  0  0  0  0
  2  3  2  0  0  0  0
  3  4  1  0  0  0  0
  4  5  1  0  0  0  0
  5  6  2  0  0  0  0
  6  7  1  0  0  0  0
  7  8  1  0  0  0  0
  8  9  1  0  0  0  0
  9 10  2  0  0  0  0
 11  9  1  1  0  0  0
 11 12  1  0  0  0  0
 12 13  1  0  0  0  0
 11 13  1  0  0  0  0
 13 14  1  1  0  0  0
 14 15  1  0  0  0  0
 14 16  2  0  0  0  0
M  END
>  <ID>
578

>  <PREFERRED_NAME>
cerulenin

>  <CAS_RN>
17397-89-6

>  <SYNONYMS>
cerulenin
helicocerin
(+)-Cerulenin

>  <URL>
http://drugcentral.org/drugcard/578/view

$$$$
