chloramphenicol palmitate
  -INDIGO-06102311182D

 37 37  0  0  1  0  0  0  0  0999 V2000
    6.5337  -12.9293    0.0000 C   0  0  0  0  0  0  0  0  0  0  0  0
    7.1447  -12.3750    0.0000 C   0  0  0  0  0  0  0  0  0  0  0  0
    7.9303  -12.6270    0.0000 C   0  0  0  0  0  0  0  0  0  0  0  0
    8.5413  -12.0726    0.0000 C   0  0  0  0  0  0  0  0  0  0  0  0
    9.3269  -12.3246    0.0000 C   0  0  0  0  0  0  0  0  0  0  0  0
    9.9379  -11.7703    0.0000 C   0  0  0  0  0  0  0  0  0  0  0  0
   10.7235  -12.0222    0.0000 C   0  0  0  0  0  0  0  0  0  0  0  0
   11.3345  -11.4679    0.0000 C   0  0  0  0  0  0  0  0  0  0  0  0
   12.1200  -11.7199    0.0000 C   0  0  0  0  0  0  0  0  0  0  0  0
   12.7310  -11.1655    0.0000 C   0  0  0  0  0  0  0  0  0  0  0  0
   13.5166  -11.4175    0.0000 C   0  0  0  0  0  0  0  0  0  0  0  0
   14.1276  -10.8632    0.0000 C   0  0  0  0  0  0  0  0  0  0  0  0
   14.9132  -11.1151    0.0000 C   0  0  0  0  0  0  0  0  0  0  0  0
   15.5242  -10.5608    0.0000 C   0  0  0  0  0  0  0  0  0  0  0  0
   16.3098  -10.8128    0.0000 C   0  0  0  0  0  0  0  0  0  0  0  0
   16.9208  -10.2584    0.0000 C   0  0  0  0  0  0  0  0  0  0  0  0
   16.7462   -9.4521    0.0000 O   0  0  0  0  0  0  0  0  0  0  0  0
   17.7064  -10.5104    0.0000 O   0  0  0  0  0  0  0  0  0  0  0  0
   18.3174   -9.9560    0.0000 C   0  0  0  0  0  0  0  0  0  0  0  0
   19.1030  -10.2080    0.0000 C   0  0  1  0  0  0  0  0  0  0  0  0
   19.2775  -11.0143    0.0000 N   0  0  0  0  0  0  0  0  0  0  0  0
   18.6665  -11.5687    0.0000 C   0  0  0  0  0  0  0  0  0  0  0  0
   17.8810  -11.3167    0.0000 O   0  0  0  0  0  0  0  0  0  0  0  0
   18.8411  -12.3750    0.0000 C   0  0  0  0  0  0  0  0  0  0  0  0
   19.6267  -12.6270    0.0000 Cl  0  0  0  0  0  0  0  0  0  0  0  0
   18.2301  -12.9293    0.0000 Cl  0  0  0  0  0  0  0  0  0  0  0  0
   19.7140   -9.6537    0.0000 C   0  0  2  0  0  0  0  0  0  0  0  0
   19.5394   -8.8474    0.0000 O   0  0  0  0  0  0  0  0  0  0  0  0
   20.4995   -9.9057    0.0000 C   0  0  0  0  0  0  0  0  0  0  0  0
   21.1106   -9.3513    0.0000 C   0  0  0  0  0  0  0  0  0  0  0  0
   21.8961   -9.6033    0.0000 C   0  0  0  0  0  0  0  0  0  0  0  0
   22.0707  -10.4096    0.0000 C   0  0  0  0  0  0  0  0  0  0  0  0
   21.4597  -10.9639    0.0000 C   0  0  0  0  0  0  0  0  0  0  0  0
   20.6741  -10.7120    0.0000 C   0  0  0  0  0  0  0  0  0  0  0  0
   22.8563  -10.6616    0.0000 N   0  0  0  0  0  0  0  0  0  0  0  0
   23.4673  -10.1072    0.0000 O   0  0  0  0  0  0  0  0  0  0  0  0
   23.0309  -11.4679    0.0000 O   0  0  0  0  0  0  0  0  0  0  0  0
  1  2  1  0  0  0  0
  2  3  1  0  0  0  0
  3  4  1  0  0  0  0
  4  5  1  0  0  0  0
  5  6  1  0  0  0  0
  6  7  1  0  0  0  0
  7  8  1  0  0  0  0
  8  9  1  0  0  0  0
  9 10  1  0  0  0  0
 10 11  1  0  0  0  0
 11 12  1  0  0  0  0
 12 13  1  0  0  0  0
 13 14  1  0  0  0  0
 14 15  1  0  0  0  0
 15 16  1  0  0  0  0
 16 17  2  0  0  0  0
 16 18  1  0  0  0  0
 18 19  1  0  0  0  0
 19 20  1  0  0  0  0
 20 21  1  6  0  0  0
 21 22  1  0  0  0  0
 22 23  2  0  0  0  0
 22 24  1  0  0  0  0
 24 25  1  0  0  0  0
 24 26  1  0  0  0  0
 20 27  1  0  0  0  0
 27 28  1  6  0  0  0
 27 29  1  0  0  0  0
 29 30  4  0  0  0  0
 30 31  4  0  0  0  0
 31 32  4  0  0  0  0
 32 33  4  0  0  0  0
 33 34  4  0  0  0  0
 29 34  4  0  0  0  0
 32 35  1  0  0  0  0
 35 36  1  0  0  0  0
 35 37  2  0  0  0  0
M  CHG  2  35   1  36  -1
M  END
>  <ID>
5150

>  <PREFERRED_NAME>
chloramphenicol palmitate

>  <CAS_RN>
530-43-8

>  <SYNONYMS>
chloramphenicol palmitate
chloromycetin palmitate

>  <URL>
http://drugcentral.org/drugcard/5150/view

$$$$
