chromic chloride
  -INDIGO-06102311182D

  4  3  0  0  0  0  0  0  0  0999 V2000
    1.2375    0.7145    0.0000 Cl  0  0  0  0  0  0  0  0  0  0  0  0
    0.8250    0.0000    0.0000 Cr  0  0  0  0  0  0  0  0  0  0  0  0
    1.2375   -0.7145    0.0000 Cl  0  0  0  0  0  0  0  0  0  0  0  0
    0.0000    0.0000    0.0000 Cl  0  0  0  0  0  0  0  0  0  0  0  0
  1  2  1  0  0  0  0
  2  3  1  0  0  0  0
  2  4  1  0  0  0  0
M  END
>  <ID>
5118

>  <PREFERRED_NAME>
chromic chloride

>  <CAS_RN>
10025-73-7

>  <SYNONYMS>
chromic chloride
chromic trichloride
chromium trichloride
chromic chloride hexahydrate

>  <URL>
http://drugcentral.org/drugcard/5118/view

$$$$
