cilazapril
  -INDIGO-06102310572D

 30 32  0  0  1  0  0  0  0  0999 V2000
   -1.9856   -0.9109    0.0000 C   0  0  0  0  0  0  0  0  0  0  0  0
   -1.1606   -0.9109    0.0000 C   0  0  0  0  0  0  0  0  0  0  0  0
   -0.7481   -0.1964    0.0000 O   0  0  0  0  0  0  0  0  0  0  0  0
    0.0769   -0.1964    0.0000 C   0  0  0  0  0  0  0  0  0  0  0  0
    0.4894   -0.9109    0.0000 O   0  0  0  0  0  0  0  0  0  0  0  0
    0.4894    0.5181    0.0000 C   0  0  2  0  0  0  0  0  0  0  0  0
    1.3144    0.5181    0.0000 C   0  0  0  0  0  0  0  0  0  0  0  0
    1.7269   -0.1964    0.0000 C   0  0  0  0  0  0  0  0  0  0  0  0
    2.5519   -0.1964    0.0000 C   0  0  0  0  0  0  0  0  0  0  0  0
    2.9644    0.5181    0.0000 C   0  0  0  0  0  0  0  0  0  0  0  0
    3.7894    0.5181    0.0000 C   0  0  0  0  0  0  0  0  0  0  0  0
    4.2019   -0.1964    0.0000 C   0  0  0  0  0  0  0  0  0  0  0  0
    3.7894   -0.9109    0.0000 C   0  0  0  0  0  0  0  0  0  0  0  0
    2.9644   -0.9109    0.0000 C   0  0  0  0  0  0  0  0  0  0  0  0
    0.0769    1.2325    0.0000 N   0  0  0  0  0  0  0  0  0  0  0  0
   -0.7481    1.2325    0.0000 C   0  0  1  0  0  0  0  0  0  0  0  0
   -1.1061    0.4892    0.0000 C   0  0  0  0  0  0  0  0  0  0  0  0
   -1.9104    0.3057    0.0000 C   0  0  0  0  0  0  0  0  0  0  0  0
   -2.5554    0.8200    0.0000 C   0  0  0  0  0  0  0  0  0  0  0  0
   -2.5554    1.6450    0.0000 N   0  0  0  0  0  0  0  0  0  0  0  0
   -3.3234    1.9464    0.0000 C   0  0  0  0  0  0  0  0  0  0  0  0
   -3.4463    2.7622    0.0000 C   0  0  0  0  0  0  0  0  0  0  0  0
   -2.8013    3.2766    0.0000 C   0  0  0  0  0  0  0  0  0  0  0  0
   -2.0333    2.9752    0.0000 C   0  0  2  0  0  0  0  0  0  0  0  0
   -1.9104    2.1594    0.0000 N   0  0  0  0  0  0  0  0  0  0  0  0
   -1.1061    1.9758    0.0000 C   0  0  0  0  0  0  0  0  0  0  0  0
   -0.5917    2.6208    0.0000 O   0  0  0  0  0  0  0  0  0  0  0  0
   -1.3883    3.4896    0.0000 C   0  0  0  0  0  0  0  0  0  0  0  0
   -0.6204    3.1882    0.0000 O   0  0  0  0  0  0  0  0  0  0  0  0
   -1.5113    4.3054    0.0000 O   0  0  0  0  0  0  0  0  0  0  0  0
  1  2  1  0  0  0  0
  2  3  1  0  0  0  0
  3  4  1  0  0  0  0
  4  5  2  0  0  0  0
  4  6  1  0  0  0  0
  6  7  1  0  0  0  0
  7  8  1  0  0  0  0
  8  9  1  0  0  0  0
  9 10  4  0  0  0  0
 10 11  4  0  0  0  0
 11 12  4  0  0  0  0
 12 13  4  0  0  0  0
 13 14  4  0  0  0  0
  9 14  4  0  0  0  0
  6 15  1  1  0  0  0
 16 15  1  1  0  0  0
 16 17  1  0  0  0  0
 17 18  1  0  0  0  0
 18 19  1  0  0  0  0
 19 20  1  0  0  0  0
 20 21  1  0  0  0  0
 21 22  1  0  0  0  0
 22 23  1  0  0  0  0
 23 24  1  0  0  0  0
 24 25  1  0  0  0  0
 20 25  1  0  0  0  0
 25 26  1  0  0  0  0
 16 26  1  0  0  0  0
 26 27  2  0  0  0  0
 24 28  1  1  0  0  0
 28 29  1  0  0  0  0
 28 30  2  0  0  0  0
M  END
>  <ID>
641

>  <PREFERRED_NAME>
cilazapril

>  <CAS_RN>
88768-40-5

>  <SYNONYMS>
cilazapril
cilazapril monohydrobromide
cilazapril anhydrous
inhibace
vascace
cilazapril monohydrate
cilazapril hydrate

>  <URL>
http://drugcentral.org/drugcard/641/view

$$$$
