cilastatin
  -INDIGO-06102310572D

 24 24  0  0  1  0  0  0  0  0999 V2000
   -7.1261    5.5414    0.0000 C   0  0  0  0  0  0  0  0  0  0  0  0
   -6.9829    4.7289    0.0000 C   0  0  0  0  0  0  0  0  0  0  0  0
   -7.7581    4.4468    0.0000 C   0  0  0  0  0  0  0  0  0  0  0  0
   -6.1579    4.7289    0.0000 C   0  0  0  0  0  0  0  0  0  0  0  0
   -6.5704    4.0145    0.0000 C   0  0  2  0  0  0  0  0  0  0  0  0
   -6.5704    3.1895    0.0000 C   0  0  0  0  0  0  0  0  0  0  0  0
   -7.2849    2.7770    0.0000 O   0  0  0  0  0  0  0  0  0  0  0  0
   -5.8559    2.7770    0.0000 N   0  0  0  0  0  0  0  0  0  0  0  0
   -5.8559    1.9520    0.0000 C   0  0  0  0  0  0  0  0  0  0  0  0
   -5.1414    1.5395    0.0000 C   0  0  0  0  0  0  0  0  0  0  0  0
   -4.4270    1.9520    0.0000 C   0  0  0  0  0  0  0  0  0  0  0  0
   -3.7125    1.5395    0.0000 C   0  0  0  0  0  0  0  0  0  0  0  0
   -2.9980    1.9520    0.0000 C   0  0  0  0  0  0  0  0  0  0  0  0
   -2.2836    1.5395    0.0000 C   0  0  0  0  0  0  0  0  0  0  0  0
   -1.5691    1.9520    0.0000 S   0  0  0  0  0  0  0  0  0  0  0  0
   -0.8546    1.5395    0.0000 C   0  0  0  0  0  0  0  0  0  0  0  0
   -0.1401    1.9520    0.0000 C   0  0  2  0  0  0  0  0  0  0  0  0
   -0.1401    2.7770    0.0000 N   0  0  0  0  0  0  0  0  0  0  0  0
    0.5743    1.5395    0.0000 C   0  0  0  0  0  0  0  0  0  0  0  0
    1.2888    1.9520    0.0000 O   0  0  0  0  0  0  0  0  0  0  0  0
    0.5743    0.7145    0.0000 O   0  0  0  0  0  0  0  0  0  0  0  0
   -6.5704    1.5395    0.0000 C   0  0  0  0  0  0  0  0  0  0  0  0
   -6.5704    0.7145    0.0000 O   0  0  0  0  0  0  0  0  0  0  0  0
   -7.2849    1.9520    0.0000 O   0  0  0  0  0  0  0  0  0  0  0  0
  1  2  1  0  0  0  0
  2  3  1  0  0  0  0
  2  4  1  0  0  0  0
  4  5  1  0  0  0  0
  2  5  1  0  0  0  0
  5  6  1  6  0  0  0
  6  7  2  0  0  0  0
  6  8  1  0  0  0  0
  8  9  1  0  0  0  0
  9 10  2  0  0  0  0
 10 11  1  0  0  0  0
 11 12  1  0  0  0  0
 12 13  1  0  0  0  0
 13 14  1  0  0  0  0
 14 15  1  0  0  0  0
 15 16  1  0  0  0  0
 16 17  1  0  0  0  0
 17 18  1  6  0  0  0
 17 19  1  0  0  0  0
 19 20  1  0  0  0  0
 19 21  2  0  0  0  0
  9 22  1  0  0  0  0
 22 23  1  0  0  0  0
 22 24  2  0  0  0  0
M  END
>  <ID>
640

>  <PREFERRED_NAME>
cilastatin

>  <CAS_RN>
82009-34-5

>  <SYNONYMS>
cilastatin
cilastatin sodium
cilastin
cilastatin monosodium

>  <URL>
http://drugcentral.org/drugcard/640/view

$$$$
