cimetropium
  -INDIGO-06102310572D

 26 30  0  0  1  0  0  0  0  0999 V2000
    1.5671    0.9105    0.0000 C   0  0  0  0  0  0  0  0  0  0  0  0
    0.8255    1.2684    0.0000 N   0  0  0  0  0  0  0  0  0  0  0  0
    1.5748    1.6071    0.0000 C   0  0  0  0  0  0  0  0  0  0  0  0
    1.6385    2.4435    0.0000 C   0  0  0  0  0  0  0  0  0  0  0  0
    1.2815    3.1872    0.0000 C   0  0  0  0  0  0  0  0  0  0  0  0
    2.1041    3.1245    0.0000 C   0  0  0  0  0  0  0  0  0  0  0  0
    1.0572    0.3415    0.0000 C   0  0  1  0  0  0  0  0  0  0  0  0
    1.8615    0.5251    0.0000 C   0  0  0  0  0  0  0  0  0  0  0  0
    2.2195    1.2684    0.0000 C   0  0  1  0  0  0  0  0  0  0  0  0
    1.8615    2.0117    0.0000 C   0  0  0  0  0  0  0  0  0  0  0  0
    1.0572    2.1953    0.0000 C   0  0  2  0  0  0  0  0  0  0  0  0
    0.4122    1.6809    0.0000 C   0  0  1  0  0  0  0  0  0  0  0  0
   -0.3023    1.2684    0.0000 O   0  0  0  0  0  0  0  0  0  0  0  0
    0.4122    0.8559    0.0000 C   0  0  1  0  0  0  0  0  0  0  0  0
    3.1674    1.2781    0.0000 O   0  0  0  0  0  0  0  0  0  0  0  0
    3.7597    0.6625    0.0000 C   0  0  0  0  0  0  0  0  0  0  0  0
    3.1683    0.0873    0.0000 O   0  0  0  0  0  0  0  0  0  0  0  0
    4.5838    0.4293    0.0000 C   0  0  2  0  0  0  0  0  0  0  0  0
    4.9975    1.1588    0.0000 C   0  0  0  0  0  0  0  0  0  0  0  0
    5.8225    1.1650    0.0000 O   0  0  0  0  0  0  0  0  0  0  0  0
    5.0017   -0.2820    0.0000 C   0  0  0  0  0  0  0  0  0  0  0  0
    5.8267   -0.2757    0.0000 C   0  0  0  0  0  0  0  0  0  0  0  0
    6.2446   -0.9870    0.0000 C   0  0  0  0  0  0  0  0  0  0  0  0
    5.8375   -1.7046    0.0000 C   0  0  0  0  0  0  0  0  0  0  0  0
    5.0126   -1.7109    0.0000 C   0  0  0  0  0  0  0  0  0  0  0  0
    4.5946   -0.9996    0.0000 C   0  0  0  0  0  0  0  0  0  0  0  0
  1  2  1  0  0  0  0
  2  3  1  0  0  0  0
  3  4  1  0  0  0  0
  4  5  1  0  0  0  0
  5  6  1  0  0  0  0
  4  6  1  0  0  0  0
  2  7  1  0  0  0  0
  7  8  1  1  0  0  0
  8  9  1  0  0  0  0
  9 10  1  0  0  0  0
 11 10  1  1  0  0  0
  2 11  1  0  0  0  0
 11 12  1  0  0  0  0
 12 13  1  6  0  0  0
 14 13  1  6  0  0  0
  7 14  1  0  0  0  0
 12 14  1  0  0  0  0
  9 15  1  1  0  0  0
 15 16  1  0  0  0  0
 16 17  2  0  0  0  0
 18 16  1  6  0  0  0
 18 19  1  0  0  0  0
 19 20  1  0  0  0  0
 18 21  1  0  0  0  0
 21 22  4  0  0  0  0
 22 23  4  0  0  0  0
 23 24  4  0  0  0  0
 24 25  4  0  0  0  0
 25 26  4  0  0  0  0
 21 26  4  0  0  0  0
M  CHG  1   2   1
M  END
>  <ID>
646

>  <PREFERRED_NAME>
cimetropium

>  <CAS_RN>
51598-60-8

>  <SYNONYMS>
cimetropium
cimetropium bromide
cyclopropylmethylscopolamine bromide

>  <URL>
http://drugcentral.org/drugcard/646/view

$$$$
