cimetidine
  -INDIGO-06102310572D

 17 17  0  0  0  0  0  0  0  0999 V2000
    1.7344   -4.6019    0.0000 C   0  0  0  0  0  0  0  0  0  0  0  0
    2.4489   -4.1894    0.0000 N   0  0  0  0  0  0  0  0  0  0  0  0
    2.4489   -3.3644    0.0000 C   0  0  0  0  0  0  0  0  0  0  0  0
    3.1634   -2.9519    0.0000 N   0  0  0  0  0  0  0  0  0  0  0  0
    3.8779   -3.3644    0.0000 C   0  0  0  0  0  0  0  0  0  0  0  0
    4.5923   -2.9519    0.0000 C   0  0  0  0  0  0  0  0  0  0  0  0
    5.3068   -3.3644    0.0000 S   0  0  0  0  0  0  0  0  0  0  0  0
    6.0213   -2.9519    0.0000 C   0  0  0  0  0  0  0  0  0  0  0  0
    6.7357   -3.3644    0.0000 C   0  0  0  0  0  0  0  0  0  0  0  0
    7.4894   -3.0288    0.0000 C   0  0  0  0  0  0  0  0  0  0  0  0
    7.6609   -2.2218    0.0000 C   0  0  0  0  0  0  0  0  0  0  0  0
    8.0414   -3.6419    0.0000 N   0  0  0  0  0  0  0  0  0  0  0  0
    7.6289   -4.3564    0.0000 C   0  0  0  0  0  0  0  0  0  0  0  0
    6.8220   -4.1848    0.0000 N   0  0  0  0  0  0  0  0  0  0  0  0
    1.7344   -2.9519    0.0000 N   0  0  0  0  0  0  0  0  0  0  0  0
    1.0200   -3.3644    0.0000 C   0  0  0  0  0  0  0  0  0  0  0  0
    0.3055   -3.7769    0.0000 N   0  0  0  0  0  0  0  0  0  0  0  0
  1  2  1  0  0  0  0
  2  3  1  0  0  0  0
  3  4  1  0  0  0  0
  4  5  1  0  0  0  0
  5  6  1  0  0  0  0
  6  7  1  0  0  0  0
  7  8  1  0  0  0  0
  8  9  1  0  0  0  0
  9 10  4  0  0  0  0
 10 11  1  0  0  0  0
 10 12  4  0  0  0  0
 12 13  4  0  0  0  0
 13 14  4  0  0  0  0
  9 14  4  0  0  0  0
  3 15  2  0  0  0  0
 15 16  1  4  0  0  0
 16 17  3  0  0  0  0
M  STY  1   1 DAT
M  SLB  1   1   1
M  SAL   1  1  12
M  SDT   1 MRV_IMPLICIT_H
M  SDD   1     0.0000    0.0000    DA    ALL  1       1
M  SED   1 IMPL_H1
M  END
>  <ID>
645

>  <PREFERRED_NAME>
cimetidine

>  <CAS_RN>
51481-61-9

>  <SYNONYMS>
cimetidine
tagamet
tametin
ulcedin
ulcedine
ulcerex
ulcerfen
cimetidine hydrochloride
cimetidine HCl

>  <URL>
http://drugcentral.org/drugcard/645/view

$$$$
