clemastine
  -INDIGO-06102310572D

 24 26  0  0  1  0  0  0  0  0999 V2000
    2.7512   -2.5366    0.0000 C   0  0  0  0  0  0  0  0  0  0  0  0
    2.7512   -3.3616    0.0000 N   0  0  0  0  0  0  0  0  0  0  0  0
    3.4186   -3.8465    0.0000 C   0  0  0  0  0  0  0  0  0  0  0  0
    3.1637   -4.6312    0.0000 C   0  0  0  0  0  0  0  0  0  0  0  0
    2.3387   -4.6312    0.0000 C   0  0  0  0  0  0  0  0  0  0  0  0
    2.0837   -3.8465    0.0000 C   0  0  2  0  0  0  0  0  0  0  0  0
    1.2991   -3.5916    0.0000 C   0  0  0  0  0  0  0  0  0  0  0  0
    1.1276   -2.7846    0.0000 C   0  0  0  0  0  0  0  0  0  0  0  0
    0.3430   -2.5297    0.0000 O   0  0  0  0  0  0  0  0  0  0  0  0
    0.1714   -1.7227    0.0000 C   0  0  2  0  0  0  0  0  0  0  0  0
    0.9784   -1.5512    0.0000 C   0  0  0  0  0  0  0  0  0  0  0  0
   -0.6355   -1.8942    0.0000 C   0  0  0  0  0  0  0  0  0  0  0  0
   -0.8905   -2.6789    0.0000 C   0  0  0  0  0  0  0  0  0  0  0  0
   -1.6974   -2.8504    0.0000 C   0  0  0  0  0  0  0  0  0  0  0  0
   -2.2495   -2.2373    0.0000 C   0  0  0  0  0  0  0  0  0  0  0  0
   -1.9945   -1.4527    0.0000 C   0  0  0  0  0  0  0  0  0  0  0  0
   -1.1876   -1.2811    0.0000 C   0  0  0  0  0  0  0  0  0  0  0  0
   -0.0001   -0.9157    0.0000 C   0  0  0  0  0  0  0  0  0  0  0  0
   -0.7847   -0.6608    0.0000 C   0  0  0  0  0  0  0  0  0  0  0  0
   -0.9562    0.1462    0.0000 C   0  0  0  0  0  0  0  0  0  0  0  0
   -0.3431    0.6982    0.0000 C   0  0  0  0  0  0  0  0  0  0  0  0
   -0.5147    1.5052    0.0000 Cl  0  0  0  0  0  0  0  0  0  0  0  0
    0.4415    0.4433    0.0000 C   0  0  0  0  0  0  0  0  0  0  0  0
    0.6130   -0.3637    0.0000 C   0  0  0  0  0  0  0  0  0  0  0  0
  1  2  1  0  0  0  0
  2  3  1  0  0  0  0
  3  4  1  0  0  0  0
  4  5  1  0  0  0  0
  5  6  1  0  0  0  0
  2  6  1  0  0  0  0
  6  7  1  6  0  0  0
  7  8  1  0  0  0  0
  8  9  1  0  0  0  0
 10  9  1  6  0  0  0
 10 11  1  1  0  0  0
 10 12  1  0  0  0  0
 12 13  4  0  0  0  0
 13 14  4  0  0  0  0
 14 15  4  0  0  0  0
 15 16  4  0  0  0  0
 16 17  4  0  0  0  0
 12 17  4  0  0  0  0
 10 18  1  0  0  0  0
 18 19  4  0  0  0  0
 19 20  4  0  0  0  0
 20 21  4  0  0  0  0
 21 22  1  0  0  0  0
 21 23  4  0  0  0  0
 23 24  4  0  0  0  0
 18 24  4  0  0  0  0
M  END
>  <ID>
671

>  <PREFERRED_NAME>
clemastine

>  <CAS_RN>
15686-51-8

>  <SYNONYMS>
clemastine
meclastine
clemastine fumarate

>  <URL>
http://drugcentral.org/drugcard/671/view

$$$$
