clindamycin palmitate
  -INDIGO-06102310572D

 44 45  0  0  1  0  0  0  0  0999 V2000
   -9.9901   -2.2863    0.0000 C   0  0  0  0  0  0  0  0  0  0  0  0
   -9.3363   -2.7895    0.0000 C   0  0  0  0  0  0  0  0  0  0  0  0
   -8.5737   -2.4750    0.0000 C   0  0  0  0  0  0  0  0  0  0  0  0
   -7.9199   -2.9782    0.0000 C   0  0  0  0  0  0  0  0  0  0  0  0
   -7.1572   -2.6637    0.0000 C   0  0  0  0  0  0  0  0  0  0  0  0
   -6.5035   -3.1670    0.0000 C   0  0  0  0  0  0  0  0  0  0  0  0
   -5.7408   -2.8524    0.0000 C   0  0  0  0  0  0  0  0  0  0  0  0
   -5.6318   -2.0347    0.0000 C   0  0  0  0  0  0  0  0  0  0  0  0
   -4.8692   -1.7201    0.0000 C   0  0  0  0  0  0  0  0  0  0  0  0
   -4.2154   -2.2234    0.0000 C   0  0  0  0  0  0  0  0  0  0  0  0
   -3.4527   -1.9088    0.0000 C   0  0  0  0  0  0  0  0  0  0  0  0
   -2.7990   -2.4121    0.0000 C   0  0  0  0  0  0  0  0  0  0  0  0
   -2.0363   -2.0976    0.0000 C   0  0  0  0  0  0  0  0  0  0  0  0
   -1.3826   -2.6008    0.0000 C   0  0  0  0  0  0  0  0  0  0  0  0
   -0.6199   -2.2863    0.0000 C   0  0  0  0  0  0  0  0  0  0  0  0
    0.0339   -2.7895    0.0000 C   0  0  0  0  0  0  0  0  0  0  0  0
   -0.0751   -3.6073    0.0000 O   0  0  0  0  0  0  0  0  0  0  0  0
    0.7965   -2.4750    0.0000 O   0  0  0  0  0  0  0  0  0  0  0  0
    0.9055   -1.6572    0.0000 C   0  0  2  0  0  0  0  0  0  0  0  0
    0.2518   -1.1540    0.0000 C   0  0  1  0  0  0  0  0  0  0  0  0
   -0.5109   -1.4685    0.0000 O   0  0  0  0  0  0  0  0  0  0  0  0
    0.3607   -0.3362    0.0000 C   0  0  1  0  0  0  0  0  0  0  0  0
   -0.2930    0.1670    0.0000 O   0  0  0  0  0  0  0  0  0  0  0  0
    1.1234   -0.0217    0.0000 C   0  0  2  0  0  0  0  0  0  0  0  0
    1.7771   -0.5249    0.0000 O   0  0  0  0  0  0  0  0  0  0  0  0
    1.6682   -1.3427    0.0000 C   0  0  2  0  0  0  0  0  0  0  0  0
    2.3219   -1.8459    0.0000 S   0  0  0  0  0  0  0  0  0  0  0  0
    2.2130   -2.6637    0.0000 C   0  0  0  0  0  0  0  0  0  0  0  0
    1.2324    0.7961    0.0000 C   0  0  2  0  0  0  0  0  0  0  0  0
    1.9951    1.1106    0.0000 N   0  0  0  0  0  0  0  0  0  0  0  0
    2.1040    1.9284    0.0000 C   0  0  0  0  0  0  0  0  0  0  0  0
    1.4503    2.4316    0.0000 O   0  0  0  0  0  0  0  0  0  0  0  0
    2.8667    2.2429    0.0000 C   0  0  2  0  0  0  0  0  0  0  0  0
    3.5695    1.8108    0.0000 C   0  0  0  0  0  0  0  0  0  0  0  0
    4.1976    2.3456    0.0000 C   0  0  1  0  0  0  0  0  0  0  0  0
    4.9995    2.1517    0.0000 C   0  0  0  0  0  0  0  0  0  0  0  0
    5.5684    2.7493    0.0000 C   0  0  0  0  0  0  0  0  0  0  0  0
    6.3703    2.5555    0.0000 C   0  0  0  0  0  0  0  0  0  0  0  0
    3.8831    3.1083    0.0000 C   0  0  0  0  0  0  0  0  0  0  0  0
    3.0605    3.0448    0.0000 N   0  0  0  0  0  0  0  0  0  0  0  0
    2.5257    3.6730    0.0000 C   0  0  0  0  0  0  0  0  0  0  0  0
    0.5786    1.2993    0.0000 C   0  0  2  0  0  0  0  0  0  0  0  0
   -0.1841    0.9848    0.0000 C   0  0  0  0  0  0  0  0  0  0  0  0
    0.6876    2.1171    0.0000 Cl  0  0  0  0  0  0  0  0  0  0  0  0
  1  2  1  0  0  0  0
  2  3  1  0  0  0  0
  3  4  1  0  0  0  0
  4  5  1  0  0  0  0
  5  6  1  0  0  0  0
  6  7  1  0  0  0  0
  7  8  1  0  0  0  0
  8  9  1  0  0  0  0
  9 10  1  0  0  0  0
 10 11  1  0  0  0  0
 11 12  1  0  0  0  0
 12 13  1  0  0  0  0
 13 14  1  0  0  0  0
 14 15  1  0  0  0  0
 15 16  1  0  0  0  0
 16 17  2  0  0  0  0
 16 18  1  0  0  0  0
 19 18  1  6  0  0  0
 19 20  1  0  0  0  0
 20 21  1  1  0  0  0
 20 22  1  0  0  0  0
 22 23  1  1  0  0  0
 22 24  1  0  0  0  0
 24 25  1  0  0  0  0
 25 26  1  0  0  0  0
 19 26  1  0  0  0  0
 26 27  1  6  0  0  0
 27 28  1  0  0  0  0
 24 29  1  1  0  0  0
 29 30  1  1  0  0  0
 30 31  1  0  0  0  0
 31 32  2  0  0  0  0
 33 31  1  1  0  0  0
 33 34  1  0  0  0  0
 34 35  1  0  0  0  0
 35 36  1  6  0  0  0
 36 37  1  0  0  0  0
 37 38  1  0  0  0  0
 35 39  1  0  0  0  0
 39 40  1  0  0  0  0
 33 40  1  0  0  0  0
 40 41  1  0  0  0  0
 29 42  1  0  0  0  0
 42 43  1  0  0  0  0
 42 44  1  6  0  0  0
M  END
>  <ID>
679

>  <PREFERRED_NAME>
clindamycin palmitate

>  <CAS_RN>
36688-78-5

>  <SYNONYMS>
clindamycin palmitate
clindamycin 2-palmitate
clindamycin palmitate hydrochloride
clindamycin palmitate HCl

>  <URL>
http://drugcentral.org/drugcard/679/view

$$$$
