clobenoside
  -INDIGO-06102310572D

 33 35  0  0  1  0  0  0  0  0999 V2000
    1.0656   -0.7465    0.0000 C   0  0  0  0  0  0  0  0  0  0  0  0
    1.6787   -1.2985    0.0000 C   0  0  0  0  0  0  0  0  0  0  0  0
    1.5072   -2.1055    0.0000 C   0  0  0  0  0  0  0  0  0  0  0  0
    2.1203   -2.6575    0.0000 O   0  0  0  0  0  0  0  0  0  0  0  0
    2.9049   -2.4026    0.0000 C   0  0  2  0  0  0  0  0  0  0  0  0
    3.1599   -1.6180    0.0000 C   0  0  1  0  0  0  0  0  0  0  0  0
    2.6749   -0.9505    0.0000 O   0  0  0  0  0  0  0  0  0  0  0  0
    3.9849   -1.6180    0.0000 C   0  0  0  0  0  0  0  0  0  0  0  0
    4.4698   -0.9505    0.0000 O   0  0  0  0  0  0  0  0  0  0  0  0
    4.1342   -0.1968    0.0000 C   0  0  0  0  0  0  0  0  0  0  0  0
    4.6191    0.4706    0.0000 C   0  0  0  0  0  0  0  0  0  0  0  0
    4.2398   -2.4026    0.0000 O   0  0  0  0  0  0  0  0  0  0  0  0
    3.5724   -2.8875    0.0000 C   0  0  2  0  0  0  0  0  0  0  0  0
    3.5724   -3.7125    0.0000 C   0  0  1  0  0  0  0  0  0  0  0  0
    2.8579   -4.1250    0.0000 C   0  0  0  0  0  0  0  0  0  0  0  0
    2.1434   -3.7125    0.0000 O   0  0  0  0  0  0  0  0  0  0  0  0
    1.4289   -4.1250    0.0000 C   0  0  0  0  0  0  0  0  0  0  0  0
    0.7145   -3.7125    0.0000 C   0  0  0  0  0  0  0  0  0  0  0  0
    0.0000   -4.1250    0.0000 C   0  0  0  0  0  0  0  0  0  0  0  0
   -0.7145   -3.7125    0.0000 C   0  0  0  0  0  0  0  0  0  0  0  0
   -0.7145   -2.8875    0.0000 C   0  0  0  0  0  0  0  0  0  0  0  0
   -1.4289   -2.4750    0.0000 Cl  0  0  0  0  0  0  0  0  0  0  0  0
    0.0000   -2.4750    0.0000 C   0  0  0  0  0  0  0  0  0  0  0  0
    0.7145   -2.8875    0.0000 C   0  0  0  0  0  0  0  0  0  0  0  0
    4.2868   -4.1250    0.0000 O   0  0  0  0  0  0  0  0  0  0  0  0
    5.0013   -3.7125    0.0000 C   0  0  0  0  0  0  0  0  0  0  0  0
    5.7158   -4.1250    0.0000 C   0  0  0  0  0  0  0  0  0  0  0  0
    6.4302   -3.7125    0.0000 C   0  0  0  0  0  0  0  0  0  0  0  0
    7.1447   -4.1250    0.0000 C   0  0  0  0  0  0  0  0  0  0  0  0
    7.1447   -4.9500    0.0000 C   0  0  0  0  0  0  0  0  0  0  0  0
    7.8592   -5.3625    0.0000 Cl  0  0  0  0  0  0  0  0  0  0  0  0
    6.4302   -5.3625    0.0000 C   0  0  0  0  0  0  0  0  0  0  0  0
    5.7158   -4.9500    0.0000 C   0  0  0  0  0  0  0  0  0  0  0  0
  1  2  1  0  0  0  0
  2  3  1  0  0  0  0
  3  4  1  0  0  0  0
  5  4  1  6  0  0  0
  5  6  1  0  0  0  0
  6  7  1  1  0  0  0
  6  8  1  0  0  0  0
  8  9  1  0  0  0  0
  9 10  1  0  0  0  0
 10 11  1  0  0  0  0
  8 12  1  0  0  0  0
 12 13  1  0  0  0  0
  5 13  1  0  0  0  0
 13 14  1  6  0  0  0
 14 15  1  0  0  0  0
 15 16  1  0  0  0  0
 16 17  1  0  0  0  0
 17 18  1  0  0  0  0
 18 19  4  0  0  0  0
 19 20  4  0  0  0  0
 20 21  4  0  0  0  0
 21 22  1  0  0  0  0
 21 23  4  0  0  0  0
 23 24  4  0  0  0  0
 18 24  4  0  0  0  0
 14 25  1  6  0  0  0
 25 26  1  0  0  0  0
 26 27  1  0  0  0  0
 27 28  4  0  0  0  0
 28 29  4  0  0  0  0
 29 30  4  0  0  0  0
 30 31  1  0  0  0  0
 30 32  4  0  0  0  0
 32 33  4  0  0  0  0
 27 33  4  0  0  0  0
M  END
>  <ID>
683

>  <PREFERRED_NAME>
clobenoside

>  <CAS_RN>
29899-95-4

>  <SYNONYMS>
clobenoside
clobenosid
arvigol
floganol

>  <URL>
http://drugcentral.org/drugcard/683/view

$$$$
