clometocillin
  -INDIGO-06102310572D

 27 29  0  0  1  0  0  0  0  0999 V2000
    0.3546   -4.1262    0.0000 C   0  0  0  0  0  0  0  0  0  0  0  0
    1.0690   -3.7137    0.0000 O   0  0  0  0  0  0  0  0  0  0  0  0
    1.0690   -2.8887    0.0000 C   0  0  0  0  0  0  0  0  0  0  0  0
    1.7835   -2.4762    0.0000 C   0  0  0  0  0  0  0  0  0  0  0  0
    1.7835   -1.6512    0.0000 O   0  0  0  0  0  0  0  0  0  0  0  0
    2.4980   -2.8887    0.0000 N   0  0  0  0  0  0  0  0  0  0  0  0
    3.2124   -2.4762    0.0000 C   0  0  1  0  0  0  0  0  0  0  0  0
    3.4260   -1.6793    0.0000 C   0  0  1  0  0  0  0  0  0  0  0  0
    3.3828   -0.8555    0.0000 S   0  0  0  0  0  0  0  0  0  0  0  0
    4.1530   -0.5598    0.0000 C   0  0  0  0  0  0  0  0  0  0  0  0
    3.7785    0.1753    0.0000 C   0  0  0  0  0  0  0  0  0  0  0  0
    4.8449   -0.1105    0.0000 C   0  0  0  0  0  0  0  0  0  0  0  0
    4.6722   -1.2010    0.0000 C   0  0  1  0  0  0  0  0  0  0  0  0
    4.2229   -1.8929    0.0000 N   0  0  0  0  0  0  0  0  0  0  0  0
    4.0093   -2.6898    0.0000 C   0  0  0  0  0  0  0  0  0  0  0  0
    4.4218   -3.4042    0.0000 O   0  0  0  0  0  0  0  0  0  0  0  0
    5.4961   -1.1578    0.0000 C   0  0  0  0  0  0  0  0  0  0  0  0
    5.8706   -0.4227    0.0000 O   0  0  0  0  0  0  0  0  0  0  0  0
    5.9454   -1.8497    0.0000 O   0  0  0  0  0  0  0  0  0  0  0  0
    0.3546   -2.4762    0.0000 C   0  0  0  0  0  0  0  0  0  0  0  0
   -0.3599   -2.8887    0.0000 C   0  0  0  0  0  0  0  0  0  0  0  0
   -1.0744   -2.4762    0.0000 C   0  0  0  0  0  0  0  0  0  0  0  0
   -1.7889   -2.8887    0.0000 Cl  0  0  0  0  0  0  0  0  0  0  0  0
   -1.0744   -1.6512    0.0000 C   0  0  0  0  0  0  0  0  0  0  0  0
   -1.7889   -1.2387    0.0000 Cl  0  0  0  0  0  0  0  0  0  0  0  0
   -0.3599   -1.2387    0.0000 C   0  0  0  0  0  0  0  0  0  0  0  0
    0.3546   -1.6512    0.0000 C   0  0  0  0  0  0  0  0  0  0  0  0
  1  2  1  0  0  0  0
  2  3  1  0  0  0  0
  3  4  1  0  0  0  0
  4  5  2  0  0  0  0
  4  6  1  0  0  0  0
  7  6  1  1  0  0  0
  7  8  1  0  0  0  0
  8  9  1  0  0  0  0
  9 10  1  0  0  0  0
 10 11  1  0  0  0  0
 10 12  1  0  0  0  0
 10 13  1  0  0  0  0
 13 14  1  0  0  0  0
  8 14  1  1  0  0  0
 14 15  1  0  0  0  0
  7 15  1  0  0  0  0
 15 16  2  0  0  0  0
 13 17  1  6  0  0  0
 17 18  1  0  0  0  0
 17 19  2  0  0  0  0
  3 20  1  0  0  0  0
 20 21  4  0  0  0  0
 21 22  4  0  0  0  0
 22 23  1  0  0  0  0
 22 24  4  0  0  0  0
 24 25  1  0  0  0  0
 24 26  4  0  0  0  0
 26 27  4  0  0  0  0
 20 27  4  0  0  0  0
M  END
>  <ID>
699

>  <PREFERRED_NAME>
clometocillin

>  <CAS_RN>
1926-49-4

>  <SYNONYMS>
clometocillin
clometacillin
clomethacillin
clomethocillin
clometicillin
DL-Clometocillin

>  <URL>
http://drugcentral.org/drugcard/699/view

$$$$
