clomifene
  -INDIGO-06102310572D

 29 31  0  0  0  0  0  0  0  0999 V2000
   -2.9684   -3.9336    0.0000 C   0  0  0  0  0  0  0  0  0  0  0  0
   -2.1434   -3.9336    0.0000 C   0  0  0  0  0  0  0  0  0  0  0  0
   -1.7309   -4.6480    0.0000 N   0  0  0  0  0  0  0  0  0  0  0  0
   -2.1434   -5.3625    0.0000 C   0  0  0  0  0  0  0  0  0  0  0  0
   -2.9684   -5.3625    0.0000 C   0  0  0  0  0  0  0  0  0  0  0  0
   -0.9059   -4.6480    0.0000 C   0  0  0  0  0  0  0  0  0  0  0  0
   -0.4934   -5.3625    0.0000 C   0  0  0  0  0  0  0  0  0  0  0  0
    0.3316   -5.3625    0.0000 O   0  0  0  0  0  0  0  0  0  0  0  0
    0.7441   -6.0770    0.0000 C   0  0  0  0  0  0  0  0  0  0  0  0
    1.5691   -6.0770    0.0000 C   0  0  0  0  0  0  0  0  0  0  0  0
    1.9816   -6.7914    0.0000 C   0  0  0  0  0  0  0  0  0  0  0  0
    1.5691   -7.5059    0.0000 C   0  0  0  0  0  0  0  0  0  0  0  0
    0.7441   -7.5059    0.0000 C   0  0  0  0  0  0  0  0  0  0  0  0
    0.3316   -6.7914    0.0000 C   0  0  0  0  0  0  0  0  0  0  0  0
    1.9816   -8.2204    0.0000 C   0  0  0  0  0  0  0  0  0  0  0  0
    1.5691   -8.9349    0.0000 C   0  0  0  0  0  0  0  0  0  0  0  0
    0.7441   -8.9349    0.0000 Cl  0  0  0  0  0  0  0  0  0  0  0  0
    1.9816   -9.6493    0.0000 C   0  0  0  0  0  0  0  0  0  0  0  0
    2.8066   -9.6493    0.0000 C   0  0  0  0  0  0  0  0  0  0  0  0
    3.2191  -10.3638    0.0000 C   0  0  0  0  0  0  0  0  0  0  0  0
    2.8066  -11.0783    0.0000 C   0  0  0  0  0  0  0  0  0  0  0  0
    1.9816  -11.0783    0.0000 C   0  0  0  0  0  0  0  0  0  0  0  0
    1.5691  -10.3638    0.0000 C   0  0  0  0  0  0  0  0  0  0  0  0
    2.8066   -8.2204    0.0000 C   0  0  0  0  0  0  0  0  0  0  0  0
    3.2191   -7.5059    0.0000 C   0  0  0  0  0  0  0  0  0  0  0  0
    4.0441   -7.5059    0.0000 C   0  0  0  0  0  0  0  0  0  0  0  0
    4.4566   -8.2204    0.0000 C   0  0  0  0  0  0  0  0  0  0  0  0
    4.0441   -8.9349    0.0000 C   0  0  0  0  0  0  0  0  0  0  0  0
    3.2191   -8.9349    0.0000 C   0  0  0  0  0  0  0  0  0  0  0  0
  1  2  1  0  0  0  0
  2  3  1  0  0  0  0
  3  4  1  0  0  0  0
  4  5  1  0  0  0  0
  3  6  1  0  0  0  0
  6  7  1  0  0  0  0
  7  8  1  0  0  0  0
  8  9  1  0  0  0  0
  9 10  4  0  0  0  0
 10 11  4  0  0  0  0
 11 12  4  0  0  0  0
 12 13  4  0  0  0  0
 13 14  4  0  0  0  0
  9 14  4  0  0  0  0
 12 15  1  0  0  0  0
 15 16  2  0  0  0  0
 16 17  1  4  0  0  0
 16 18  1  0  0  0  0
 18 19  4  0  0  0  0
 19 20  4  0  0  0  0
 20 21  4  0  0  0  0
 21 22  4  0  0  0  0
 22 23  4  0  0  0  0
 18 23  4  0  0  0  0
 15 24  1  0  0  0  0
 24 25  4  0  0  0  0
 25 26  4  0  0  0  0
 26 27  4  0  0  0  0
 27 28  4  0  0  0  0
 28 29  4  0  0  0  0
 24 29  4  0  0  0  0
M  END
>  <ID>
700

>  <PREFERRED_NAME>
clomifene

>  <CAS_RN>
911-45-5

>  <SYNONYMS>
clomifene
clomifene citrate
clomiphene
Clomiphene B
clomiphene citrate
clomid

>  <URL>
http://drugcentral.org/drugcard/700/view

$$$$
