clomethiazole
  -INDIGO-06102310572D

  9  9  0  0  0  0  0  0  0  0999 V2000
    0.5678    1.9393    0.0000 C   0  0  0  0  0  0  0  0  0  0  0  0
    0.5678    1.1143    0.0000 C   0  0  0  0  0  0  0  0  0  0  0  0
    1.2352    0.6294    0.0000 C   0  0  0  0  0  0  0  0  0  0  0  0
    2.0198    0.8843    0.0000 C   0  0  0  0  0  0  0  0  0  0  0  0
    2.6329    0.3323    0.0000 C   0  0  0  0  0  0  0  0  0  0  0  0
    3.4175    0.5872    0.0000 Cl  0  0  0  0  0  0  0  0  0  0  0  0
    0.9803   -0.1553    0.0000 S   0  0  0  0  0  0  0  0  0  0  0  0
    0.1553   -0.1553    0.0000 C   0  0  0  0  0  0  0  0  0  0  0  0
   -0.0997    0.6294    0.0000 N   0  0  0  0  0  0  0  0  0  0  0  0
  1  2  1  0  0  0  0
  2  3  4  0  0  0  0
  3  4  1  0  0  0  0
  4  5  1  0  0  0  0
  5  6  1  0  0  0  0
  3  7  4  0  0  0  0
  7  8  4  0  0  0  0
  8  9  4  0  0  0  0
  2  9  4  0  0  0  0
M  END
>  <ID>
602

>  <PREFERRED_NAME>
clomethiazole

>  <CAS_RN>
533-45-9

>  <SYNONYMS>
clomethiazole
chlormethiazole
chlorethiazol
chlorethiazole
chlormethiazol
clomethiazolum
distraneurin
emineurina
chlormethiazole hydrochloride
chlormethiazole HCl
clomethiazole edisilate

>  <URL>
http://drugcentral.org/drugcard/602/view

$$$$
