clotiazepam
  -INDIGO-06102310572D

 21 23  0  0  0  0  0  0  0  0999 V2000
   -1.9708    0.0134    0.0000 C   0  0  0  0  0  0  0  0  0  0  0  0
   -1.5583   -0.7011    0.0000 C   0  0  0  0  0  0  0  0  0  0  0  0
   -0.7333   -0.7011    0.0000 C   0  0  0  0  0  0  0  0  0  0  0  0
   -0.2483   -1.3685    0.0000 C   0  0  0  0  0  0  0  0  0  0  0  0
    0.5363   -1.1136    0.0000 C   0  0  0  0  0  0  0  0  0  0  0  0
    0.5363   -0.2886    0.0000 C   0  0  0  0  0  0  0  0  0  0  0  0
   -0.2483   -0.0336    0.0000 S   0  0  0  0  0  0  0  0  0  0  0  0
    1.1813    0.2258    0.0000 N   0  0  0  0  0  0  0  0  0  0  0  0
    0.9977    1.0301    0.0000 C   0  0  0  0  0  0  0  0  0  0  0  0
    1.9856    0.0422    0.0000 C   0  0  0  0  0  0  0  0  0  0  0  0
    2.5000    0.6872    0.0000 O   0  0  0  0  0  0  0  0  0  0  0  0
    2.3436   -0.7011    0.0000 C   0  0  0  0  0  0  0  0  0  0  0  0
    1.9856   -1.4444    0.0000 N   0  0  0  0  0  0  0  0  0  0  0  0
    1.1813   -1.6280    0.0000 C   0  0  0  0  0  0  0  0  0  0  0  0
    0.9977   -2.4323    0.0000 C   0  0  0  0  0  0  0  0  0  0  0  0
    1.6025   -2.9934    0.0000 C   0  0  0  0  0  0  0  0  0  0  0  0
    2.3908   -2.7502    0.0000 Cl  0  0  0  0  0  0  0  0  0  0  0  0
    1.4189   -3.7977    0.0000 C   0  0  0  0  0  0  0  0  0  0  0  0
    0.6305   -4.0409    0.0000 C   0  0  0  0  0  0  0  0  0  0  0  0
    0.0258   -3.4798    0.0000 C   0  0  0  0  0  0  0  0  0  0  0  0
    0.2094   -2.6754    0.0000 C   0  0  0  0  0  0  0  0  0  0  0  0
  1  2  1  0  0  0  0
  2  3  1  0  0  0  0
  3  4  4  0  0  0  0
  4  5  4  0  0  0  0
  5  6  4  0  0  0  0
  6  7  4  0  0  0  0
  3  7  4  0  0  0  0
  6  8  1  0  0  0  0
  8  9  1  0  0  0  0
  8 10  1  0  0  0  0
 10 11  2  0  0  0  0
 10 12  1  0  0  0  0
 12 13  1  0  0  0  0
 13 14  2  0  0  0  0
  5 14  1  0  0  0  0
 14 15  1  0  0  0  0
 15 16  4  0  0  0  0
 16 17  1  0  0  0  0
 16 18  4  0  0  0  0
 18 19  4  0  0  0  0
 19 20  4  0  0  0  0
 20 21  4  0  0  0  0
 15 21  4  0  0  0  0
M  END
>  <ID>
718

>  <PREFERRED_NAME>
clotiazepam

>  <CAS_RN>
33671-46-4

>  <SYNONYMS>
clotiazepam

>  <URL>
http://drugcentral.org/drugcard/718/view

$$$$
