cloxazolam
  -INDIGO-06102310572D

 23 26  0  0  0  0  0  0  0  0999 V2000
    0.1000   -2.3697    0.0000 Cl  0  0  0  0  0  0  0  0  0  0  0  0
    0.4311   -1.6140    0.0000 C   0  0  0  0  0  0  0  0  0  0  0  0
   -0.0577   -0.9494    0.0000 C   0  0  0  0  0  0  0  0  0  0  0  0
    0.2735   -0.1938    0.0000 C   0  0  0  0  0  0  0  0  0  0  0  0
    1.0934   -0.1028    0.0000 C   0  0  0  0  0  0  0  0  0  0  0  0
    1.3083    0.6937    0.0000 N   0  0  0  0  0  0  0  0  0  0  0  0
    2.0650    1.0224    0.0000 C   0  0  0  0  0  0  0  0  0  0  0  0
    2.0972    1.8468    0.0000 O   0  0  0  0  0  0  0  0  0  0  0  0
    2.7937    0.6357    0.0000 C   0  0  0  0  0  0  0  0  0  0  0  0
    2.9458   -0.1752    0.0000 N   0  0  0  0  0  0  0  0  0  0  0  0
    3.7063   -0.4950    0.0000 C   0  0  0  0  0  0  0  0  0  0  0  0
    3.6371   -1.3171    0.0000 C   0  0  0  0  0  0  0  0  0  0  0  0
    2.8339   -1.5053    0.0000 O   0  0  0  0  0  0  0  0  0  0  0  0
    2.4066   -0.7996    0.0000 C   0  0  0  0  0  0  0  0  0  0  0  0
    1.5822   -0.7674    0.0000 C   0  0  0  0  0  0  0  0  0  0  0  0
    1.2511   -1.5230    0.0000 C   0  0  0  0  0  0  0  0  0  0  0  0
    2.2277   -1.6050    0.0000 C   0  0  0  0  0  0  0  0  0  0  0  0
    2.8358   -2.1626    0.0000 C   0  0  0  0  0  0  0  0  0  0  0  0
    3.6227   -1.9148    0.0000 Cl  0  0  0  0  0  0  0  0  0  0  0  0
    2.6569   -2.9679    0.0000 C   0  0  0  0  0  0  0  0  0  0  0  0
    1.8700   -3.2157    0.0000 C   0  0  0  0  0  0  0  0  0  0  0  0
    1.2619   -2.6581    0.0000 C   0  0  0  0  0  0  0  0  0  0  0  0
    1.4408   -1.8527    0.0000 C   0  0  0  0  0  0  0  0  0  0  0  0
  1  2  1  0  0  0  0
  2  3  4  0  0  0  0
  3  4  4  0  0  0  0
  4  5  4  0  0  0  0
  5  6  1  0  0  0  0
  6  7  1  0  0  0  0
  7  8  2  0  0  0  0
  7  9  1  0  0  0  0
  9 10  1  0  0  0  0
 10 11  1  0  0  0  0
 11 12  1  0  0  0  0
 12 13  1  0  0  0  0
 13 14  1  0  0  0  0
 10 14  1  0  0  0  0
 14 15  1  0  0  0  0
  5 15  4  0  0  0  0
 15 16  4  0  0  0  0
  2 16  4  0  0  0  0
 14 17  1  0  0  0  0
 17 18  4  0  0  0  0
 18 19  1  0  0  0  0
 18 20  4  0  0  0  0
 20 21  4  0  0  0  0
 21 22  4  0  0  0  0
 22 23  4  0  0  0  0
 17 23  4  0  0  0  0
M  END
>  <ID>
721

>  <PREFERRED_NAME>
cloxazolam

>  <CAS_RN>
24166-13-0

>  <SYNONYMS>
cloxazolam
cloxazolazepam

>  <URL>
http://drugcentral.org/drugcard/721/view

$$$$
