cobimetinib
  -INDIGO-06102311182D

 30 33  0  0  1  0  0  0  0  0999 V2000
    0.5436   -0.4833    0.0000 O   0  0  0  0  0  0  0  0  0  0  0  0
    1.1270   -1.0666    0.0000 C   0  0  0  0  0  0  0  0  0  0  0  0
    1.7103   -1.6500    0.0000 C   0  0  0  0  0  0  0  0  0  0  0  0
    1.1270   -2.2334    0.0000 N   0  0  0  0  0  0  0  0  0  0  0  0
    0.5436   -1.6500    0.0000 C   0  0  0  0  0  0  0  0  0  0  0  0
    1.1270   -3.0584    0.0000 C   0  0  0  0  0  0  0  0  0  0  0  0
    1.8414   -3.4709    0.0000 O   0  0  0  0  0  0  0  0  0  0  0  0
    0.4125   -3.4709    0.0000 C   0  0  0  0  0  0  0  0  0  0  0  0
    0.4125   -4.2959    0.0000 C   0  0  0  0  0  0  0  0  0  0  0  0
    1.1270   -4.7084    0.0000 N   0  0  0  0  0  0  0  0  0  0  0  0
    1.1270   -5.5334    0.0000 C   0  0  0  0  0  0  0  0  0  0  0  0
    0.4125   -5.9459    0.0000 C   0  0  0  0  0  0  0  0  0  0  0  0
    0.4125   -6.7709    0.0000 C   0  0  0  0  0  0  0  0  0  0  0  0
    1.1270   -7.1834    0.0000 C   0  0  0  0  0  0  0  0  0  0  0  0
    1.1270   -8.0084    0.0000 I   0  0  0  0  0  0  0  0  0  0  0  0
    1.8414   -6.7709    0.0000 C   0  0  0  0  0  0  0  0  0  0  0  0
    1.8414   -5.9459    0.0000 C   0  0  0  0  0  0  0  0  0  0  0  0
    2.5559   -5.5334    0.0000 F   0  0  0  0  0  0  0  0  0  0  0  0
   -0.3020   -4.7084    0.0000 C   0  0  0  0  0  0  0  0  0  0  0  0
   -0.3020   -5.5334    0.0000 F   0  0  0  0  0  0  0  0  0  0  0  0
   -1.0164   -4.2959    0.0000 C   0  0  0  0  0  0  0  0  0  0  0  0
   -1.7309   -4.7084    0.0000 F   0  0  0  0  0  0  0  0  0  0  0  0
   -1.0164   -3.4709    0.0000 C   0  0  0  0  0  0  0  0  0  0  0  0
   -0.3020   -3.0584    0.0000 C   0  0  0  0  0  0  0  0  0  0  0  0
    1.7103   -0.4833    0.0000 C   0  0  2  0  0  0  0  0  0  0  0  0
    1.4968    0.3136    0.0000 C   0  0  0  0  0  0  0  0  0  0  0  0
    2.0802    0.8970    0.0000 C   0  0  0  0  0  0  0  0  0  0  0  0
    2.8771    0.6835    0.0000 C   0  0  0  0  0  0  0  0  0  0  0  0
    3.0906   -0.1134    0.0000 C   0  0  0  0  0  0  0  0  0  0  0  0
    2.5072   -0.6968    0.0000 N   0  0  0  0  0  0  0  0  0  0  0  0
  1  2  1  0  0  0  0
  2  3  1  0  0  0  0
  3  4  1  0  0  0  0
  4  5  1  0  0  0  0
  2  5  1  0  0  0  0
  4  6  1  0  0  0  0
  6  7  2  0  0  0  0
  6  8  1  0  0  0  0
  8  9  4  0  0  0  0
  9 10  1  0  0  0  0
 10 11  1  0  0  0  0
 11 12  4  0  0  0  0
 12 13  4  0  0  0  0
 13 14  4  0  0  0  0
 14 15  1  0  0  0  0
 14 16  4  0  0  0  0
 16 17  4  0  0  0  0
 11 17  4  0  0  0  0
 17 18  1  0  0  0  0
  9 19  4  0  0  0  0
 19 20  1  0  0  0  0
 19 21  4  0  0  0  0
 21 22  1  0  0  0  0
 21 23  4  0  0  0  0
 23 24  4  0  0  0  0
  8 24  4  0  0  0  0
 25  2  1  6  0  0  0
 25 26  1  0  0  0  0
 26 27  1  0  0  0  0
 27 28  1  0  0  0  0
 28 29  1  0  0  0  0
 29 30  1  0  0  0  0
 25 30  1  0  0  0  0
M  END
>  <ID>
5046

>  <PREFERRED_NAME>
cobimetinib

>  <CAS_RN>
934660-93-2

>  <SYNONYMS>
cobimetinib
RG 7420
GDC-0973
cobimetinib butyrate
cobimetinib fumarate
cotellic
XL518
cobimetinib hemifumarate

>  <URL>
http://drugcentral.org/drugcard/5046/view

$$$$
