colchicine
  -INDIGO-06102310572D

 29 31  0  0  1  0  0  0  0  0999 V2000
    5.5842    0.0876    0.0000 C   0  0  0  0  0  0  0  0  0  0  0  0
    5.0479    0.7145    0.0000 O   0  0  0  0  0  0  0  0  0  0  0  0
    4.2368    0.5635    0.0000 C   0  0  0  0  0  0  0  0  0  0  0  0
    3.7005    1.1904    0.0000 C   0  0  0  0  0  0  0  0  0  0  0  0
    3.9752    1.9683    0.0000 O   0  0  0  0  0  0  0  0  0  0  0  0
    3.4389    2.5952    0.0000 C   0  0  0  0  0  0  0  0  0  0  0  0
    2.8894    1.0394    0.0000 C   0  0  0  0  0  0  0  0  0  0  0  0
    2.3531    1.6663    0.0000 O   0  0  0  0  0  0  0  0  0  0  0  0
    2.6279    2.4442    0.0000 C   0  0  0  0  0  0  0  0  0  0  0  0
    2.6147    0.2615    0.0000 C   0  0  0  0  0  0  0  0  0  0  0  0
    3.1510   -0.3654    0.0000 C   0  0  0  0  0  0  0  0  0  0  0  0
    2.9953   -1.1756    0.0000 C   0  0  0  0  0  0  0  0  0  0  0  0
    2.2648   -1.5589    0.0000 C   0  0  0  0  0  0  0  0  0  0  0  0
    1.5096   -1.2268    0.0000 C   0  0  2  0  0  0  0  0  0  0  0  0
    0.8827   -1.7632    0.0000 N   0  0  0  0  0  0  0  0  0  0  0  0
    1.0337   -2.5742    0.0000 C   0  0  0  0  0  0  0  0  0  0  0  0
    1.8116   -2.8490    0.0000 C   0  0  0  0  0  0  0  0  0  0  0  0
    0.4068   -3.1105    0.0000 O   0  0  0  0  0  0  0  0  0  0  0  0
    1.2984   -0.4293    0.0000 C   0  0  0  0  0  0  0  0  0  0  0  0
    0.4738   -0.4578    0.0000 C   0  0  0  0  0  0  0  0  0  0  0  0
   -0.0625    0.1691    0.0000 C   0  0  0  0  0  0  0  0  0  0  0  0
   -0.8600   -0.0421    0.0000 O   0  0  0  0  0  0  0  0  0  0  0  0
    0.0933    0.9793    0.0000 C   0  0  0  0  0  0  0  0  0  0  0  0
   -0.5691    1.4711    0.0000 O   0  0  0  0  0  0  0  0  0  0  0  0
   -1.3262    1.1434    0.0000 C   0  0  0  0  0  0  0  0  0  0  0  0
    0.8238    1.3627    0.0000 C   0  0  0  0  0  0  0  0  0  0  0  0
    1.5790    1.0305    0.0000 C   0  0  0  0  0  0  0  0  0  0  0  0
    1.7902    0.2330    0.0000 C   0  0  0  0  0  0  0  0  0  0  0  0
    3.9621   -0.2144    0.0000 C   0  0  0  0  0  0  0  0  0  0  0  0
  1  2  1  0  0  0  0
  2  3  1  0  0  0  0
  3  4  4  0  0  0  0
  4  5  1  0  0  0  0
  5  6  1  0  0  0  0
  4  7  4  0  0  0  0
  7  8  1  0  0  0  0
  8  9  1  0  0  0  0
  7 10  4  0  0  0  0
 10 11  4  0  0  0  0
 11 12  1  0  0  0  0
 12 13  1  0  0  0  0
 13 14  1  0  0  0  0
 14 15  1  6  0  0  0
 15 16  1  0  0  0  0
 16 17  1  0  0  0  0
 16 18  2  0  0  0  0
 14 19  1  0  0  0  0
 19 20  2  0  0  0  0
 20 21  1  0  0  0  0
 21 22  2  0  0  0  0
 21 23  1  0  0  0  0
 23 24  1  0  0  0  0
 24 25  1  0  0  0  0
 23 26  2  0  0  0  0
 26 27  1  0  0  0  0
 27 28  2  0  0  0  0
 10 28  1  0  0  0  0
 19 28  1  0  0  0  0
 11 29  4  0  0  0  0
  3 29  4  0  0  0  0
M  END
>  <ID>
726

>  <PREFERRED_NAME>
colchicine

>  <CAS_RN>
64-86-8

>  <SYNONYMS>
colchicine
colchisol
colcin

>  <URL>
http://drugcentral.org/drugcard/726/view

$$$$
