colecalciferol
  -INDIGO-06102311072D

 28 30  0  0  1  0  0  0  0  0999 V2000
    4.8525   -0.8511    0.0000 C   0  0  0  0  0  0  0  0  0  0  0  0
    5.5670   -1.2636    0.0000 C   0  0  0  0  0  0  0  0  0  0  0  0
    5.5670   -2.0886    0.0000 C   0  0  0  0  0  0  0  0  0  0  0  0
    6.2815   -0.8511    0.0000 C   0  0  0  0  0  0  0  0  0  0  0  0
    6.9960   -1.2636    0.0000 C   0  0  0  0  0  0  0  0  0  0  0  0
    7.7104   -0.8511    0.0000 C   0  0  0  0  0  0  0  0  0  0  0  0
    8.4249   -1.2636    0.0000 C   0  0  1  0  0  0  0  0  0  0  0  0
    8.4249   -2.0886    0.0000 C   0  0  0  0  0  0  0  0  0  0  0  0
    9.1394   -0.8511    0.0000 C   0  0  1  0  0  0  0  0  0  0  0  0
    9.2256   -0.0307    0.0000 C   0  0  0  0  0  0  0  0  0  0  0  0
   10.0326    0.1409    0.0000 C   0  0  0  0  0  0  0  0  0  0  0  0
   10.4451   -0.5736    0.0000 C   0  0  1  0  0  0  0  0  0  0  0  0
   11.2521   -0.7451    0.0000 C   0  0  0  0  0  0  0  0  0  0  0  0
   11.5070   -1.5298    0.0000 C   0  0  0  0  0  0  0  0  0  0  0  0
   10.9550   -2.1428    0.0000 C   0  0  0  0  0  0  0  0  0  0  0  0
   10.1480   -1.9713    0.0000 C   0  0  0  0  0  0  0  0  0  0  0  0
    9.8930   -1.1867    0.0000 C   0  0  2  0  0  0  0  0  0  0  0  0
    9.2800   -1.7387    0.0000 C   0  0  0  0  0  0  0  0  0  0  0  0
   11.8041   -0.1320    0.0000 C   0  0  0  0  0  0  0  0  0  0  0  0
   12.6111   -0.3036    0.0000 C   0  0  0  0  0  0  0  0  0  0  0  0
   13.1631    0.3095    0.0000 C   0  0  0  0  0  0  0  0  0  0  0  0
   13.9701    0.1380    0.0000 C   0  0  0  0  0  0  0  0  0  0  0  0
   14.5221    0.7511    0.0000 C   0  0  1  0  0  0  0  0  0  0  0  0
   15.3291    0.5796    0.0000 O   0  0  0  0  0  0  0  0  0  0  0  0
   14.2672    1.5357    0.0000 C   0  0  0  0  0  0  0  0  0  0  0  0
   13.4602    1.7072    0.0000 C   0  0  0  0  0  0  0  0  0  0  0  0
   12.9081    1.0942    0.0000 C   0  0  0  0  0  0  0  0  0  0  0  0
   12.1012    1.2657    0.0000 C   0  0  0  0  0  0  0  0  0  0  0  0
  1  2  1  0  0  0  0
  2  3  1  0  0  0  0
  2  4  1  0  0  0  0
  4  5  1  0  0  0  0
  5  6  1  0  0  0  0
  6  7  1  0  0  0  0
  7  8  1  6  0  0  0
  9  7  1  1  0  0  0
  9 10  1  0  0  0  0
 10 11  1  0  0  0  0
 12 11  1  1  0  0  0
 12 13  1  0  0  0  0
 13 14  1  0  0  0  0
 14 15  1  0  0  0  0
 15 16  1  0  0  0  0
 16 17  1  0  0  0  0
  9 17  1  0  0  0  0
 12 17  1  0  0  0  0
 17 18  1  1  0  0  0
 13 19  2  0  0  0  0
 19 20  1  0  0  0  0
 20 21  2  0  0  0  0
 21 22  1  0  0  0  0
 22 23  1  0  0  0  0
 23 24  1  6  0  0  0
 23 25  1  0  0  0  0
 25 26  1  0  0  0  0
 26 27  1  0  0  0  0
 21 27  1  0  0  0  0
 27 28  2  0  0  0  0
M  END
>  <ID>
2840

>  <PREFERRED_NAME>
colecalciferol

>  <CAS_RN>
67-97-0

>  <SYNONYMS>
colecalciferol
Vitamin D3
cholecalciferol
arachitol
calciol
calcirol

>  <URL>
http://drugcentral.org/drugcard/2840/view

$$$$
