copanlisib
  -INDIGO-06102311202D

 35 39  0  0  0  0  0  0  0  0999 V2000
    4.6912   -1.7427    0.0000 C   0  0  0  0  0  0  0  0  0  0  0  0
    5.1258   -1.0415    0.0000 O   0  0  0  0  0  0  0  0  0  0  0  0
    4.7358   -0.3145    0.0000 C   0  0  0  0  0  0  0  0  0  0  0  0
    5.1704    0.3867    0.0000 C   0  0  0  0  0  0  0  0  0  0  0  0
    5.9950    0.3610    0.0000 O   0  0  0  0  0  0  0  0  0  0  0  0
    6.4296    1.0622    0.0000 C   0  0  0  0  0  0  0  0  0  0  0  0
    7.2542    1.0365    0.0000 C   0  0  0  0  0  0  0  0  0  0  0  0
    7.6888    1.7377    0.0000 C   0  0  0  0  0  0  0  0  0  0  0  0
    8.5134    1.7119    0.0000 N   0  0  0  0  0  0  0  0  0  0  0  0
    8.9480    2.4132    0.0000 C   0  0  0  0  0  0  0  0  0  0  0  0
    9.7726    2.3874    0.0000 C   0  0  0  0  0  0  0  0  0  0  0  0
   10.1626    1.6604    0.0000 O   0  0  0  0  0  0  0  0  0  0  0  0
    9.7280    0.9592    0.0000 C   0  0  0  0  0  0  0  0  0  0  0  0
    8.9034    0.9849    0.0000 C   0  0  0  0  0  0  0  0  0  0  0  0
    4.7804    1.1137    0.0000 C   0  0  0  0  0  0  0  0  0  0  0  0
    3.9558    1.1395    0.0000 C   0  0  0  0  0  0  0  0  0  0  0  0
    3.5212    0.4383    0.0000 C   0  0  0  0  0  0  0  0  0  0  0  0
    3.9112   -0.2887    0.0000 C   0  0  0  0  0  0  0  0  0  0  0  0
    3.4766   -0.9900    0.0000 N   0  0  0  0  0  0  0  0  0  0  0  0
    2.6520   -0.9642    0.0000 C   0  0  0  0  0  0  0  0  0  0  0  0
    2.2174   -1.6655    0.0000 N   0  0  0  0  0  0  0  0  0  0  0  0
    2.6073   -2.3925    0.0000 C   0  0  0  0  0  0  0  0  0  0  0  0
    3.4319   -2.4182    0.0000 O   0  0  0  0  0  0  0  0  0  0  0  0
    2.1727   -3.0937    0.0000 C   0  0  0  0  0  0  0  0  0  0  0  0
    2.5627   -3.8207    0.0000 C   0  0  0  0  0  0  0  0  0  0  0  0
    2.1281   -4.5220    0.0000 N   0  0  0  0  0  0  0  0  0  0  0  0
    1.3035   -4.4962    0.0000 C   0  0  0  0  0  0  0  0  0  0  0  0
    0.8689   -5.1974    0.0000 N   0  0  0  0  0  0  0  0  0  0  0  0
    0.9135   -3.7692    0.0000 N   0  0  0  0  0  0  0  0  0  0  0  0
    1.3481   -3.0679    0.0000 C   0  0  0  0  0  0  0  0  0  0  0  0
    2.2620   -0.2372    0.0000 N   0  0  0  0  0  0  0  0  0  0  0  0
    1.4608   -0.0406    0.0000 C   0  0  0  0  0  0  0  0  0  0  0  0
    1.4002    0.7822    0.0000 C   0  0  0  0  0  0  0  0  0  0  0  0
    2.1640    1.0941    0.0000 N   0  0  0  0  0  0  0  0  0  0  0  0
    2.6966    0.4640    0.0000 C   0  0  0  0  0  0  0  0  0  0  0  0
  1  2  1  0  0  0  0
  2  3  1  0  0  0  0
  3  4  4  0  0  0  0
  4  5  1  0  0  0  0
  5  6  1  0  0  0  0
  6  7  1  0  0  0  0
  7  8  1  0  0  0  0
  8  9  1  0  0  0  0
  9 10  1  0  0  0  0
 10 11  1  0  0  0  0
 11 12  1  0  0  0  0
 12 13  1  0  0  0  0
 13 14  1  0  0  0  0
  9 14  1  0  0  0  0
  4 15  4  0  0  0  0
 15 16  4  0  0  0  0
 16 17  4  0  0  0  0
 17 18  4  0  0  0  0
  3 18  4  0  0  0  0
 18 19  1  0  0  0  0
 19 20  2  0  0  0  0
 20 21  1  0  0  0  0
 21 22  1  0  0  0  0
 22 23  2  0  0  0  0
 22 24  1  0  0  0  0
 24 25  4  0  0  0  0
 25 26  4  0  0  0  0
 26 27  4  0  0  0  0
 27 28  1  0  0  0  0
 27 29  4  0  0  0  0
 29 30  4  0  0  0  0
 24 30  4  0  0  0  0
 20 31  1  0  0  0  0
 31 32  1  0  0  0  0
 32 33  1  0  0  0  0
 33 34  1  0  0  0  0
 34 35  2  0  0  0  0
 17 35  1  0  0  0  0
 31 35  1  0  0  0  0
M  END
>  <ID>
5256

>  <PREFERRED_NAME>
copanlisib

>  <CAS_RN>
1032568-63-0

>  <SYNONYMS>
copanlisib
BAY 80-6946
BAY 84-1236
copanlisib hydrochloride
copanlisib HCl
copanlisib hydrochloride hydrate

>  <URL>
http://drugcentral.org/drugcard/5256/view

$$$$
