cupric oxide
  -INDIGO-06102311112D

  2  1  0  0  0  0  0  0  0  0999 V2000
    0.8250    0.0000    0.0000 O   0  0  0  0  0  0  0  0  0  0  0  0
    0.0000    0.0000    0.0000 Cu  0  0  0  0  0  0  0  0  0  0  0  0
  1  2  2  0  0  0  0
M  END
>  <ID>
4291

>  <PREFERRED_NAME>
cupric oxide

>  <CAS_RN>
1317-38-0

>  <SYNONYMS>
cupric oxide
copper oxide

>  <URL>
http://drugcentral.org/drugcard/4291/view

$$$$
