cyclodrine
  -INDIGO-06102311082D

 23 24  0  0  0  0  0  0  0  0999 V2000
    2.4922   -2.4652    0.0000 C   0  0  0  0  0  0  0  0  0  0  0  0
    3.3023   -2.3093    0.0000 C   0  0  0  0  0  0  0  0  0  0  0  0
    3.8424   -2.9329    0.0000 N   0  0  0  0  0  0  0  0  0  0  0  0
    3.5724   -3.7125    0.0000 C   0  0  0  0  0  0  0  0  0  0  0  0
    2.7622   -3.8684    0.0000 C   0  0  0  0  0  0  0  0  0  0  0  0
    4.6525   -2.7770    0.0000 C   0  0  0  0  0  0  0  0  0  0  0  0
    5.1926   -3.4007    0.0000 C   0  0  0  0  0  0  0  0  0  0  0  0
    6.0028   -3.2448    0.0000 O   0  0  0  0  0  0  0  0  0  0  0  0
    6.5428   -3.8684    0.0000 C   0  0  0  0  0  0  0  0  0  0  0  0
    6.2728   -4.6480    0.0000 O   0  0  0  0  0  0  0  0  0  0  0  0
    7.3530   -3.7125    0.0000 C   0  0  0  0  0  0  0  0  0  0  0  0
    7.8931   -4.3361    0.0000 C   0  0  0  0  0  0  0  0  0  0  0  0
    8.7032   -4.1802    0.0000 C   0  0  0  0  0  0  0  0  0  0  0  0
    9.2433   -4.8039    0.0000 C   0  0  0  0  0  0  0  0  0  0  0  0
    8.9732   -5.5834    0.0000 C   0  0  0  0  0  0  0  0  0  0  0  0
    8.1631   -5.7393    0.0000 C   0  0  0  0  0  0  0  0  0  0  0  0
    7.6230   -5.1157    0.0000 C   0  0  0  0  0  0  0  0  0  0  0  0
    7.6230   -2.9329    0.0000 C   0  0  0  0  0  0  0  0  0  0  0  0
    8.3701   -3.2830    0.0000 O   0  0  0  0  0  0  0  0  0  0  0  0
    6.8195   -2.7459    0.0000 C   0  0  0  0  0  0  0  0  0  0  0  0
    6.7491   -1.9239    0.0000 C   0  0  0  0  0  0  0  0  0  0  0  0
    7.5092   -1.6029    0.0000 C   0  0  0  0  0  0  0  0  0  0  0  0
    8.0492   -2.2266    0.0000 C   0  0  0  0  0  0  0  0  0  0  0  0
  1  2  1  0  0  0  0
  2  3  1  0  0  0  0
  3  4  1  0  0  0  0
  4  5  1  0  0  0  0
  3  6  1  0  0  0  0
  6  7  1  0  0  0  0
  7  8  1  0  0  0  0
  8  9  1  0  0  0  0
  9 10  2  0  0  0  0
  9 11  1  0  0  0  0
 11 12  1  0  0  0  0
 12 13  4  0  0  0  0
 13 14  4  0  0  0  0
 14 15  4  0  0  0  0
 15 16  4  0  0  0  0
 16 17  4  0  0  0  0
 12 17  4  0  0  0  0
 11 18  1  0  0  0  0
 18 19  1  0  0  0  0
 18 20  1  0  0  0  0
 20 21  1  0  0  0  0
 21 22  1  0  0  0  0
 22 23  1  0  0  0  0
 18 23  1  0  0  0  0
M  END
>  <ID>
3122

>  <PREFERRED_NAME>
cyclodrine

>  <CAS_RN>
78853-39-1

>  <SYNONYMS>
cyclodrine
cyclodrine hydrochloride
cyclodrin hydrochloride
cyclodrin
cyclodrine HCl
cyclodrin HCl

>  <URL>
http://drugcentral.org/drugcard/3122/view

$$$$
