cyclopentobarbital
  -INDIGO-06102311102D

 17 18  0  0  0  0  0  0  0  0999 V2000
   -0.2112   -1.1171    0.0000 C   0  0  0  0  0  0  0  0  0  0  0  0
    0.6012   -0.9738    0.0000 C   0  0  0  0  0  0  0  0  0  0  0  0
    0.8834   -0.1986    0.0000 C   0  0  0  0  0  0  0  0  0  0  0  0
    1.6959   -0.0553    0.0000 C   0  0  0  0  0  0  0  0  0  0  0  0
    1.6959   -0.8803    0.0000 C   0  0  0  0  0  0  0  0  0  0  0  0
    1.0284   -1.3652    0.0000 C   0  0  0  0  0  0  0  0  0  0  0  0
    1.2834   -2.1498    0.0000 C   0  0  0  0  0  0  0  0  0  0  0  0
    2.1084   -2.1498    0.0000 C   0  0  0  0  0  0  0  0  0  0  0  0
    2.3633   -1.3652    0.0000 C   0  0  0  0  0  0  0  0  0  0  0  0
    1.4137    0.7199    0.0000 C   0  0  0  0  0  0  0  0  0  0  0  0
    0.6012    0.8632    0.0000 O   0  0  0  0  0  0  0  0  0  0  0  0
    1.9440    1.3519    0.0000 N   0  0  0  0  0  0  0  0  0  0  0  0
    2.7565    1.2087    0.0000 C   0  0  0  0  0  0  0  0  0  0  0  0
    3.2868    1.8407    0.0000 O   0  0  0  0  0  0  0  0  0  0  0  0
    3.0386    0.4334    0.0000 N   0  0  0  0  0  0  0  0  0  0  0  0
    2.5083   -0.1986    0.0000 C   0  0  0  0  0  0  0  0  0  0  0  0
    2.7905   -0.9738    0.0000 O   0  0  0  0  0  0  0  0  0  0  0  0
  1  2  2  0  0  0  0
  2  3  1  0  0  0  0
  3  4  1  0  0  0  0
  4  5  1  0  0  0  0
  5  6  1  0  0  0  0
  6  7  1  0  0  0  0
  7  8  1  0  0  0  0
  8  9  2  0  0  0  0
  5  9  1  0  0  0  0
  4 10  1  0  0  0  0
 10 11  2  0  0  0  0
 10 12  1  0  0  0  0
 12 13  1  0  0  0  0
 13 14  2  0  0  0  0
 13 15  1  0  0  0  0
 15 16  1  0  0  0  0
  4 16  1  0  0  0  0
 16 17  2  0  0  0  0
M  END
>  <ID>
3723

>  <PREFERRED_NAME>
cyclopentobarbital

>  <CAS_RN>
76-68-6

>  <SYNONYMS>
cyclopentobarbital
allylcyclopentenylbarbital
allylpental
cyclopental
cyclopentenylallylbarbituric acid
cyclopentobarbitone

>  <URL>
http://drugcentral.org/drugcard/3723/view

$$$$
