cyclarbamate
  -INDIGO-06102311102D

 27 29  0  0  0  0  0  0  0  0999 V2000
    0.6886    0.7648    0.0000 O   0  0  0  0  0  0  0  0  0  0  0  0
    0.3531    0.0111    0.0000 C   0  0  0  0  0  0  0  0  0  0  0  0
   -0.4674   -0.0751    0.0000 N   0  0  0  0  0  0  0  0  0  0  0  0
   -0.9523    0.5923    0.0000 C   0  0  0  0  0  0  0  0  0  0  0  0
   -1.7728    0.5061    0.0000 C   0  0  0  0  0  0  0  0  0  0  0  0
   -2.2577    1.1735    0.0000 C   0  0  0  0  0  0  0  0  0  0  0  0
   -1.9222    1.9272    0.0000 C   0  0  0  0  0  0  0  0  0  0  0  0
   -1.1017    2.0135    0.0000 C   0  0  0  0  0  0  0  0  0  0  0  0
   -0.6168    1.3460    0.0000 C   0  0  0  0  0  0  0  0  0  0  0  0
    0.8380   -0.6563    0.0000 O   0  0  0  0  0  0  0  0  0  0  0  0
    1.6585   -0.5701    0.0000 C   0  0  0  0  0  0  0  0  0  0  0  0
    2.1434   -1.2375    0.0000 C   0  0  0  0  0  0  0  0  0  0  0  0
    1.4289   -1.6500    0.0000 C   0  0  0  0  0  0  0  0  0  0  0  0
    1.4289   -2.4750    0.0000 O   0  0  0  0  0  0  0  0  0  0  0  0
    2.1434   -2.8875    0.0000 C   0  0  0  0  0  0  0  0  0  0  0  0
    2.1434   -3.7125    0.0000 O   0  0  0  0  0  0  0  0  0  0  0  0
    2.8579   -2.4750    0.0000 N   0  0  0  0  0  0  0  0  0  0  0  0
    3.5724   -2.8875    0.0000 C   0  0  0  0  0  0  0  0  0  0  0  0
    4.2868   -2.4750    0.0000 C   0  0  0  0  0  0  0  0  0  0  0  0
    5.0013   -2.8875    0.0000 C   0  0  0  0  0  0  0  0  0  0  0  0
    5.0013   -3.7125    0.0000 C   0  0  0  0  0  0  0  0  0  0  0  0
    4.2868   -4.1250    0.0000 C   0  0  0  0  0  0  0  0  0  0  0  0
    3.5724   -3.7125    0.0000 C   0  0  0  0  0  0  0  0  0  0  0  0
    2.7565   -0.6855    0.0000 C   0  0  0  0  0  0  0  0  0  0  0  0
    3.4710   -1.0980    0.0000 C   0  0  0  0  0  0  0  0  0  0  0  0
    3.2995   -1.9049    0.0000 C   0  0  0  0  0  0  0  0  0  0  0  0
    2.4790   -1.9912    0.0000 C   0  0  0  0  0  0  0  0  0  0  0  0
  1  2  2  0  0  0  0
  2  3  1  0  0  0  0
  3  4  1  0  0  0  0
  4  5  4  0  0  0  0
  5  6  4  0  0  0  0
  6  7  4  0  0  0  0
  7  8  4  0  0  0  0
  8  9  4  0  0  0  0
  4  9  4  0  0  0  0
  2 10  1  0  0  0  0
 10 11  1  0  0  0  0
 11 12  1  0  0  0  0
 12 13  1  0  0  0  0
 13 14  1  0  0  0  0
 14 15  1  0  0  0  0
 15 16  2  0  0  0  0
 15 17  1  0  0  0  0
 17 18  1  0  0  0  0
 18 19  4  0  0  0  0
 19 20  4  0  0  0  0
 20 21  4  0  0  0  0
 21 22  4  0  0  0  0
 22 23  4  0  0  0  0
 18 23  4  0  0  0  0
 12 24  1  0  0  0  0
 24 25  1  0  0  0  0
 25 26  1  0  0  0  0
 26 27  1  0  0  0  0
 12 27  1  0  0  0  0
M  END
>  <ID>
3722

>  <PREFERRED_NAME>
cyclarbamate

>  <CAS_RN>
5779-54-4

>  <SYNONYMS>
cyclarbamate
calmalone
camalon
casmalon
cyclopentaphene

>  <URL>
http://drugcentral.org/drugcard/3722/view

$$$$
