cytarabine ocfosfate
  -INDIGO-06102310572D

 39 40  0  0  1  0  0  0  0  0999 V2000
   -3.4411  -16.6319    0.0000 C   0  0  0  0  0  0  0  0  0  0  0  0
   -2.7266  -17.0444    0.0000 C   0  0  0  0  0  0  0  0  0  0  0  0
   -2.0122  -16.6319    0.0000 C   0  0  0  0  0  0  0  0  0  0  0  0
   -1.2977  -17.0444    0.0000 C   0  0  0  0  0  0  0  0  0  0  0  0
   -0.5832  -16.6319    0.0000 C   0  0  0  0  0  0  0  0  0  0  0  0
    0.1313  -17.0444    0.0000 C   0  0  0  0  0  0  0  0  0  0  0  0
    0.8457  -16.6319    0.0000 C   0  0  0  0  0  0  0  0  0  0  0  0
    1.5602  -17.0444    0.0000 C   0  0  0  0  0  0  0  0  0  0  0  0
    2.2747  -16.6319    0.0000 C   0  0  0  0  0  0  0  0  0  0  0  0
    2.9891  -17.0444    0.0000 C   0  0  0  0  0  0  0  0  0  0  0  0
    3.7036  -16.6319    0.0000 C   0  0  0  0  0  0  0  0  0  0  0  0
    4.4181  -17.0444    0.0000 C   0  0  0  0  0  0  0  0  0  0  0  0
    5.1325  -16.6319    0.0000 C   0  0  0  0  0  0  0  0  0  0  0  0
    5.8470  -17.0444    0.0000 C   0  0  0  0  0  0  0  0  0  0  0  0
    6.5615  -16.6319    0.0000 C   0  0  0  0  0  0  0  0  0  0  0  0
    7.2760  -17.0444    0.0000 C   0  0  0  0  0  0  0  0  0  0  0  0
    7.9904  -16.6319    0.0000 C   0  0  0  0  0  0  0  0  0  0  0  0
    8.7049  -17.0444    0.0000 C   0  0  0  0  0  0  0  0  0  0  0  0
    9.4194  -16.6319    0.0000 O   0  0  0  0  0  0  0  0  0  0  0  0
   10.1338  -17.0444    0.0000 P   0  0  0  0  0  0  0  0  0  0  0  0
    9.7213  -17.7589    0.0000 O   0  0  0  0  0  0  0  0  0  0  0  0
   10.5463  -16.3300    0.0000 O   0  0  0  0  0  0  0  0  0  0  0  0
   10.8483  -17.4569    0.0000 O   0  0  0  0  0  0  0  0  0  0  0  0
   11.5628  -17.0444    0.0000 C   0  0  0  0  0  0  0  0  0  0  0  0
   12.2773  -17.4569    0.0000 C   0  0  1  0  0  0  0  0  0  0  0  0
   13.0309  -17.1214    0.0000 O   0  0  0  0  0  0  0  0  0  0  0  0
   13.5830  -17.7345    0.0000 C   0  0  2  0  0  0  0  0  0  0  0  0
   13.1705  -18.4490    0.0000 C   0  0  1  0  0  0  0  0  0  0  0  0
   13.5060  -19.2026    0.0000 O   0  0  0  0  0  0  0  0  0  0  0  0
   12.3635  -18.2774    0.0000 C   0  0  2  0  0  0  0  0  0  0  0  0
   11.7504  -18.8295    0.0000 O   0  0  0  0  0  0  0  0  0  0  0  0
   14.4034  -17.6482    0.0000 N   0  0  0  0  0  0  0  0  0  0  0  0
   14.7390  -16.8946    0.0000 C   0  0  0  0  0  0  0  0  0  0  0  0
   15.5595  -16.8083    0.0000 C   0  0  0  0  0  0  0  0  0  0  0  0
   16.0444  -17.4758    0.0000 C   0  0  0  0  0  0  0  0  0  0  0  0
   16.8649  -17.3895    0.0000 N   0  0  0  0  0  0  0  0  0  0  0  0
   15.7089  -18.2295    0.0000 N   0  0  0  0  0  0  0  0  0  0  0  0
   14.8884  -18.3157    0.0000 C   0  0  0  0  0  0  0  0  0  0  0  0
   14.5528  -19.0694    0.0000 O   0  0  0  0  0  0  0  0  0  0  0  0
  1  2  1  0  0  0  0
  2  3  1  0  0  0  0
  3  4  1  0  0  0  0
  4  5  1  0  0  0  0
  5  6  1  0  0  0  0
  6  7  1  0  0  0  0
  7  8  1  0  0  0  0
  8  9  1  0  0  0  0
  9 10  1  0  0  0  0
 10 11  1  0  0  0  0
 11 12  1  0  0  0  0
 12 13  1  0  0  0  0
 13 14  1  0  0  0  0
 14 15  1  0  0  0  0
 15 16  1  0  0  0  0
 16 17  1  0  0  0  0
 17 18  1  0  0  0  0
 18 19  1  0  0  0  0
 19 20  1  0  0  0  0
 20 21  1  0  0  0  0
 20 22  2  0  0  0  0
 20 23  1  0  0  0  0
 23 24  1  0  0  0  0
 25 24  1  1  0  0  0
 25 26  1  0  0  0  0
 26 27  1  0  0  0  0
 27 28  1  0  0  0  0
 28 29  1  1  0  0  0
 28 30  1  0  0  0  0
 25 30  1  0  0  0  0
 30 31  1  6  0  0  0
 27 32  1  1  0  0  0
 32 33  1  0  0  0  0
 33 34  2  0  0  0  0
 34 35  1  0  0  0  0
 35 36  1  0  0  0  0
 35 37  2  0  0  0  0
 37 38  1  0  0  0  0
 32 38  1  0  0  0  0
 38 39  2  0  0  0  0
M  END
>  <ID>
771

>  <PREFERRED_NAME>
cytarabine ocfosfate

>  <CAS_RN>
73532-83-9

>  <SYNONYMS>
cytarabine ocfosfate
cytarabine ocfosate
fosteabine
cytarabine ocfosphate hydrate
fosteabine sodium monohydrate
starasid

>  <URL>
http://drugcentral.org/drugcard/771/view

$$$$
