dabigatran etexilate
  -INDIGO-06102310572D

 46 49  0  0  0  0  0  0  0  0999 V2000
    8.8295   -8.1484    0.0000 C   0  0  0  0  0  0  0  0  0  0  0  0
    9.5440   -7.7359    0.0000 C   0  0  0  0  0  0  0  0  0  0  0  0
   10.2584   -8.1484    0.0000 C   0  0  0  0  0  0  0  0  0  0  0  0
   10.9729   -7.7359    0.0000 C   0  0  0  0  0  0  0  0  0  0  0  0
   11.6874   -8.1484    0.0000 C   0  0  0  0  0  0  0  0  0  0  0  0
   12.4019   -7.7359    0.0000 C   0  0  0  0  0  0  0  0  0  0  0  0
   13.1163   -8.1484    0.0000 O   0  0  0  0  0  0  0  0  0  0  0  0
   13.8308   -7.7359    0.0000 C   0  0  0  0  0  0  0  0  0  0  0  0
   13.8308   -6.9109    0.0000 O   0  0  0  0  0  0  0  0  0  0  0  0
   14.5453   -8.1484    0.0000 N   0  0  0  0  0  0  0  0  0  0  0  0
   15.2597   -7.7359    0.0000 C   0  0  0  0  0  0  0  0  0  0  0  0
   15.2597   -6.9109    0.0000 N   0  0  0  0  0  0  0  0  0  0  0  0
   15.9742   -8.1484    0.0000 C   0  0  0  0  0  0  0  0  0  0  0  0
   16.6887   -7.7359    0.0000 C   0  0  0  0  0  0  0  0  0  0  0  0
   17.4032   -8.1484    0.0000 C   0  0  0  0  0  0  0  0  0  0  0  0
   17.4032   -8.9734    0.0000 C   0  0  0  0  0  0  0  0  0  0  0  0
   18.1176   -9.3859    0.0000 N   0  0  0  0  0  0  0  0  0  0  0  0
   18.8321   -8.9734    0.0000 C   0  0  0  0  0  0  0  0  0  0  0  0
   19.5466   -9.3859    0.0000 C   0  0  0  0  0  0  0  0  0  0  0  0
   20.3002   -9.0504    0.0000 N   0  0  0  0  0  0  0  0  0  0  0  0
   20.8523   -9.6635    0.0000 C   0  0  0  0  0  0  0  0  0  0  0  0
   21.6773   -9.6635    0.0000 C   0  0  0  0  0  0  0  0  0  0  0  0
   22.0898  -10.3780    0.0000 C   0  0  0  0  0  0  0  0  0  0  0  0
   21.6773  -11.0924    0.0000 C   0  0  0  0  0  0  0  0  0  0  0  0
   20.8523  -11.0924    0.0000 C   0  0  0  0  0  0  0  0  0  0  0  0
   20.4398  -10.3780    0.0000 C   0  0  0  0  0  0  0  0  0  0  0  0
   19.6328  -10.2064    0.0000 N   0  0  0  0  0  0  0  0  0  0  0  0
   19.0197  -10.7585    0.0000 C   0  0  0  0  0  0  0  0  0  0  0  0
   22.9148  -10.3780    0.0000 C   0  0  0  0  0  0  0  0  0  0  0  0
   23.3273  -11.0924    0.0000 O   0  0  0  0  0  0  0  0  0  0  0  0
   23.3273   -9.6635    0.0000 N   0  0  0  0  0  0  0  0  0  0  0  0
   24.1523   -9.6635    0.0000 C   0  0  0  0  0  0  0  0  0  0  0  0
   24.5648   -8.9490    0.0000 C   0  0  0  0  0  0  0  0  0  0  0  0
   25.3898   -8.9490    0.0000 C   0  0  0  0  0  0  0  0  0  0  0  0
   25.8023   -9.6635    0.0000 O   0  0  0  0  0  0  0  0  0  0  0  0
   25.8023   -8.2345    0.0000 O   0  0  0  0  0  0  0  0  0  0  0  0
   26.6273   -8.2345    0.0000 C   0  0  0  0  0  0  0  0  0  0  0  0
   27.0398   -7.5201    0.0000 C   0  0  0  0  0  0  0  0  0  0  0  0
   22.9148   -8.9490    0.0000 C   0  0  0  0  0  0  0  0  0  0  0  0
   22.0898   -8.9490    0.0000 N   0  0  0  0  0  0  0  0  0  0  0  0
   21.6773   -8.2345    0.0000 C   0  0  0  0  0  0  0  0  0  0  0  0
   22.0898   -7.5201    0.0000 C   0  0  0  0  0  0  0  0  0  0  0  0
   22.9148   -7.5201    0.0000 C   0  0  0  0  0  0  0  0  0  0  0  0
   23.3273   -8.2345    0.0000 C   0  0  0  0  0  0  0  0  0  0  0  0
   16.6887   -9.3859    0.0000 C   0  0  0  0  0  0  0  0  0  0  0  0
   15.9742   -8.9734    0.0000 C   0  0  0  0  0  0  0  0  0  0  0  0
  1  2  1  0  0  0  0
  2  3  1  0  0  0  0
  3  4  1  0  0  0  0
  4  5  1  0  0  0  0
  5  6  1  0  0  0  0
  6  7  1  0  0  0  0
  7  8  1  0  0  0  0
  8  9  2  0  0  0  0
  8 10  1  0  0  0  0
 10 11  1  0  0  0  0
 11 12  2  0  0  0  0
 11 13  1  0  0  0  0
 13 14  4  0  0  0  0
 14 15  4  0  0  0  0
 15 16  4  0  0  0  0
 16 17  1  0  0  0  0
 17 18  1  0  0  0  0
 18 19  1  0  0  0  0
 19 20  4  0  0  0  0
 20 21  4  0  0  0  0
 21 22  4  0  0  0  0
 22 23  4  0  0  0  0
 23 24  4  0  0  0  0
 24 25  4  0  0  0  0
 25 26  4  0  0  0  0
 21 26  4  0  0  0  0
 26 27  4  0  0  0  0
 19 27  4  0  0  0  0
 27 28  1  0  0  0  0
 23 29  1  0  0  0  0
 29 30  2  0  0  0  0
 29 31  1  0  0  0  0
 31 32  1  0  0  0  0
 32 33  1  0  0  0  0
 33 34  1  0  0  0  0
 34 35  2  0  0  0  0
 34 36  1  0  0  0  0
 36 37  1  0  0  0  0
 37 38  1  0  0  0  0
 31 39  1  0  0  0  0
 39 40  4  0  0  0  0
 40 41  4  0  0  0  0
 41 42  4  0  0  0  0
 42 43  4  0  0  0  0
 43 44  4  0  0  0  0
 39 44  4  0  0  0  0
 16 45  4  0  0  0  0
 45 46  4  0  0  0  0
 13 46  4  0  0  0  0
M  END
>  <ID>
776

>  <PREFERRED_NAME>
dabigatran etexilate

>  <CAS_RN>
211915-06-9

>  <SYNONYMS>
dabigatran etexilate
BIBR 1048
BIBR-1048
dabigatran etexilate mesilate
pradaxa
dabigatran etexilate mesylate
dabigatran etexilate methanesulfonate

>  <URL>
http://drugcentral.org/drugcard/776/view

$$$$
