dabrafenib
  -INDIGO-06102311142D

 35 38  0  0  0  0  0  0  0  0999 V2000
    2.1434   -2.8875    0.0000 C   0  0  0  0  0  0  0  0  0  0  0  0
    2.1434   -3.7125    0.0000 C   0  0  0  0  0  0  0  0  0  0  0  0
    1.3184   -3.7125    0.0000 C   0  0  0  0  0  0  0  0  0  0  0  0
    2.9684   -3.7125    0.0000 C   0  0  0  0  0  0  0  0  0  0  0  0
    2.1434   -4.5375    0.0000 C   0  0  0  0  0  0  0  0  0  0  0  0
    2.8109   -5.0224    0.0000 N   0  0  0  0  0  0  0  0  0  0  0  0
    2.5559   -5.8070    0.0000 C   0  0  0  0  0  0  0  0  0  0  0  0
    1.7309   -5.8070    0.0000 C   0  0  0  0  0  0  0  0  0  0  0  0
    1.4760   -5.0224    0.0000 S   0  0  0  0  0  0  0  0  0  0  0  0
    1.2460   -6.4745    0.0000 C   0  0  0  0  0  0  0  0  0  0  0  0
    1.5815   -7.2282    0.0000 N   0  0  0  0  0  0  0  0  0  0  0  0
    1.0966   -7.8956    0.0000 C   0  0  0  0  0  0  0  0  0  0  0  0
    1.4322   -8.6493    0.0000 N   0  0  0  0  0  0  0  0  0  0  0  0
    0.2761   -7.8094    0.0000 N   0  0  0  0  0  0  0  0  0  0  0  0
   -0.0594   -7.0557    0.0000 C   0  0  0  0  0  0  0  0  0  0  0  0
    0.4255   -6.3882    0.0000 C   0  0  0  0  0  0  0  0  0  0  0  0
    3.0408   -6.4745    0.0000 C   0  0  0  0  0  0  0  0  0  0  0  0
    3.8613   -6.3882    0.0000 C   0  0  0  0  0  0  0  0  0  0  0  0
    4.1969   -5.6346    0.0000 F   0  0  0  0  0  0  0  0  0  0  0  0
    4.3462   -7.0557    0.0000 C   0  0  0  0  0  0  0  0  0  0  0  0
    5.1667   -6.9695    0.0000 N   0  0  0  0  0  0  0  0  0  0  0  0
    5.6516   -7.6369    0.0000 S   0  0  0  0  0  0  0  0  0  0  0  0
    4.9842   -8.1218    0.0000 O   0  0  0  0  0  0  0  0  0  0  0  0
    6.3191   -7.1520    0.0000 O   0  0  0  0  0  0  0  0  0  0  0  0
    6.1366   -8.3043    0.0000 C   0  0  0  0  0  0  0  0  0  0  0  0
    6.9570   -8.2181    0.0000 C   0  0  0  0  0  0  0  0  0  0  0  0
    7.2926   -7.4644    0.0000 F   0  0  0  0  0  0  0  0  0  0  0  0
    7.4420   -8.8855    0.0000 C   0  0  0  0  0  0  0  0  0  0  0  0
    7.1064   -9.6392    0.0000 C   0  0  0  0  0  0  0  0  0  0  0  0
    6.2859   -9.7254    0.0000 C   0  0  0  0  0  0  0  0  0  0  0  0
    5.8010   -9.0580    0.0000 C   0  0  0  0  0  0  0  0  0  0  0  0
    4.9805   -9.1442    0.0000 F   0  0  0  0  0  0  0  0  0  0  0  0
    4.0107   -7.8094    0.0000 C   0  0  0  0  0  0  0  0  0  0  0  0
    3.1902   -7.8956    0.0000 C   0  0  0  0  0  0  0  0  0  0  0  0
    2.7053   -7.2282    0.0000 C   0  0  0  0  0  0  0  0  0  0  0  0
  1  2  1  0  0  0  0
  2  3  1  0  0  0  0
  2  4  1  0  0  0  0
  2  5  1  0  0  0  0
  5  6  4  0  0  0  0
  6  7  4  0  0  0  0
  7  8  4  0  0  0  0
  8  9  4  0  0  0  0
  5  9  4  0  0  0  0
  8 10  1  0  0  0  0
 10 11  4  0  0  0  0
 11 12  4  0  0  0  0
 12 13  1  0  0  0  0
 12 14  4  0  0  0  0
 14 15  4  0  0  0  0
 15 16  4  0  0  0  0
 10 16  4  0  0  0  0
  7 17  1  0  0  0  0
 17 18  4  0  0  0  0
 18 19  1  0  0  0  0
 18 20  4  0  0  0  0
 20 21  1  0  0  0  0
 21 22  1  0  0  0  0
 22 23  2  0  0  0  0
 22 24  2  0  0  0  0
 22 25  1  0  0  0  0
 25 26  4  0  0  0  0
 26 27  1  0  0  0  0
 26 28  4  0  0  0  0
 28 29  4  0  0  0  0
 29 30  4  0  0  0  0
 30 31  4  0  0  0  0
 25 31  4  0  0  0  0
 31 32  1  0  0  0  0
 20 33  4  0  0  0  0
 33 34  4  0  0  0  0
 34 35  4  0  0  0  0
 17 35  4  0  0  0  0
M  END
>  <ID>
4801

>  <PREFERRED_NAME>
dabrafenib

>  <CAS_RN>
1195765-45-7

>  <SYNONYMS>
dabrafenib
GSK2118436B
dabrafenib mesylate
tafinlar
GSK2118436
dabrafenib mesilate

>  <URL>
http://drugcentral.org/drugcard/4801/view

$$$$
