dalfopristin
  -INDIGO-06102310572D

 48 50  0  0  1  0  0  0  0  0999 V2000
   11.4552    1.6379    0.0000 C   0  0  0  0  0  0  0  0  0  0  0  0
   11.0490    0.9199    0.0000 C   0  0  0  0  0  0  0  0  0  0  0  0
   10.2240    0.9126    0.0000 N   0  0  0  0  0  0  0  0  0  0  0  0
    9.8052    1.6235    0.0000 C   0  0  0  0  0  0  0  0  0  0  0  0
    8.9803    1.6162    0.0000 C   0  0  0  0  0  0  0  0  0  0  0  0
    9.8178    0.1946    0.0000 C   0  0  0  0  0  0  0  0  0  0  0  0
    8.9928    0.1873    0.0000 C   0  0  0  0  0  0  0  0  0  0  0  0
    8.5866   -0.5307    0.0000 S   0  0  0  0  0  0  0  0  0  0  0  0
    7.8685   -0.1245    0.0000 O   0  0  0  0  0  0  0  0  0  0  0  0
    9.3046   -0.9369    0.0000 O   0  0  0  0  0  0  0  0  0  0  0  0
    8.1803   -1.2488    0.0000 C   0  0  1  0  0  0  0  0  0  0  0  0
    7.3591   -1.3274    0.0000 C   0  0  0  0  0  0  0  0  0  0  0  0
    7.1801   -2.1327    0.0000 N   0  0  0  0  0  0  0  0  0  0  0  0
    7.8907   -2.5518    0.0000 C   0  0  0  0  0  0  0  0  0  0  0  0
    8.6090   -2.1460    0.0000 C   0  0  1  0  0  0  0  0  0  0  0  0
    9.3196   -2.5651    0.0000 C   0  0  0  0  0  0  0  0  0  0  0  0
   10.0379   -2.1592    0.0000 O   0  0  0  0  0  0  0  0  0  0  0  0
    9.3119   -3.3901    0.0000 O   0  0  0  0  0  0  0  0  0  0  0  0
   10.0226   -3.8092    0.0000 C   0  0  2  0  0  0  0  0  0  0  0  0
   10.7408   -3.4033    0.0000 C   0  0  0  0  0  0  0  0  0  0  0  0
   11.4514   -3.8224    0.0000 C   0  0  0  0  0  0  0  0  0  0  0  0
   10.7485   -2.5784    0.0000 C   0  0  0  0  0  0  0  0  0  0  0  0
   10.0149   -4.6341    0.0000 C   0  0  2  0  0  0  0  0  0  0  0  0
   10.7255   -5.0532    0.0000 C   0  0  0  0  0  0  0  0  0  0  0  0
    9.2966   -5.0400    0.0000 C   0  0  0  0  0  0  0  0  0  0  0  0
    8.5860   -4.6209    0.0000 C   0  0  0  0  0  0  0  0  0  0  0  0
    7.8678   -5.0267    0.0000 C   0  0  0  0  0  0  0  0  0  0  0  0
    7.8601   -5.8517    0.0000 O   0  0  0  0  0  0  0  0  0  0  0  0
    7.1571   -4.6076    0.0000 N   0  0  0  0  0  0  0  0  0  0  0  0
    6.4389   -5.0135    0.0000 C   0  0  0  0  0  0  0  0  0  0  0  0
    5.7283   -4.5944    0.0000 C   0  0  0  0  0  0  0  0  0  0  0  0
    5.0100   -5.0002    0.0000 C   0  0  0  0  0  0  0  0  0  0  0  0
    4.2994   -4.5811    0.0000 C   0  0  0  0  0  0  0  0  0  0  0  0
    4.3070   -3.7562    0.0000 C   0  0  0  0  0  0  0  0  0  0  0  0
    3.5811   -4.9870    0.0000 C   0  0  0  0  0  0  0  0  0  0  0  0
    2.8705   -4.5679    0.0000 C   0  0  1  0  0  0  0  0  0  0  0  0
    2.1522   -4.9737    0.0000 O   0  0  0  0  0  0  0  0  0  0  0  0
    2.8782   -3.7429    0.0000 C   0  0  0  0  0  0  0  0  0  0  0  0
    3.5964   -3.3371    0.0000 C   0  0  0  0  0  0  0  0  0  0  0  0
    4.4177   -3.2584    0.0000 O   0  0  0  0  0  0  0  0  0  0  0  0
    3.6041   -2.5121    0.0000 C   0  0  0  0  0  0  0  0  0  0  0  0
    4.3223   -2.1062    0.0000 C   0  0  0  0  0  0  0  0  0  0  0  0
    5.0330   -2.5253    0.0000 N   0  0  0  0  0  0  0  0  0  0  0  0
    5.7512   -2.1195    0.0000 C   0  0  0  0  0  0  0  0  0  0  0  0
    5.4095   -1.3317    0.0000 C   0  0  0  0  0  0  0  0  0  0  0  0
    4.5845   -1.3240    0.0000 O   0  0  0  0  0  0  0  0  0  0  0  0
    6.4618   -2.5386    0.0000 C   0  0  0  0  0  0  0  0  0  0  0  0
    6.4542   -3.3636    0.0000 O   0  0  0  0  0  0  0  0  0  0  0  0
  1  2  1  0  0  0  0
  2  3  1  0  0  0  0
  3  4  1  0  0  0  0
  4  5  1  0  0  0  0
  3  6  1  0  0  0  0
  6  7  1  0  0  0  0
  7  8  1  0  0  0  0
  8  9  2  0  0  0  0
  8 10  2  0  0  0  0
 11  8  1  6  0  0  0
 11 12  1  0  0  0  0
 12 13  1  0  0  0  0
 13 14  1  0  0  0  0
 15 14  1  6  0  0  0
 11 15  1  0  0  0  0
 15 16  1  0  0  0  0
 16 17  2  0  0  0  0
 16 18  1  0  0  0  0
 18 19  1  0  0  0  0
 19 20  1  6  0  0  0
 20 21  1  0  0  0  0
 20 22  1  0  0  0  0
 19 23  1  0  0  0  0
 23 24  1  6  0  0  0
 23 25  1  0  0  0  0
 25 26  2  0  0  0  0
 26 27  1  0  0  0  0
 27 28  2  0  0  0  0
 27 29  1  0  0  0  0
 29 30  1  0  0  0  0
 30 31  1  0  0  0  0
 31 32  2  0  0  0  0
 32 33  1  0  0  0  0
 33 34  1  0  0  0  0
 33 35  2  0  0  0  0
 35 36  1  0  0  0  0
 36 37  1  1  0  0  0
 36 38  1  0  0  0  0
 38 39  1  0  0  0  0
 39 40  2  0  0  0  0
 39 41  1  0  0  0  0
 41 42  1  0  0  0  0
 42 43  4  0  0  0  0
 43 44  4  0  0  0  0
 44 45  4  0  0  0  0
 45 46  4  0  0  0  0
 42 46  4  0  0  0  0
 44 47  1  0  0  0  0
 13 47  1  0  0  0  0
 47 48  2  0  0  0  0
M  END
>  <ID>
778

>  <PREFERRED_NAME>
dalfopristin

>  <CAS_RN>
112362-50-2

>  <SYNONYMS>
dalfopristin
dalfopristin mesilate
dalfopristin mesylate
RP-54476

>  <URL>
http://drugcentral.org/drugcard/778/view

$$$$
