daptomycin
  -INDIGO-06102310582D

115118  0  0  1  0  0  0  0  0999 V2000
  -13.5456    1.5001    0.0000 C   0  0  0  0  0  0  0  0  0  0  0  0
  -12.8312    1.0876    0.0000 C   0  0  0  0  0  0  0  0  0  0  0  0
  -12.1167    1.5001    0.0000 C   0  0  0  0  0  0  0  0  0  0  0  0
  -11.4022    1.0876    0.0000 C   0  0  0  0  0  0  0  0  0  0  0  0
  -10.6878    1.5001    0.0000 C   0  0  0  0  0  0  0  0  0  0  0  0
   -9.9733    1.0876    0.0000 C   0  0  0  0  0  0  0  0  0  0  0  0
   -9.2588    1.5001    0.0000 C   0  0  0  0  0  0  0  0  0  0  0  0
   -8.5443    1.0876    0.0000 C   0  0  0  0  0  0  0  0  0  0  0  0
   -7.8299    1.5001    0.0000 C   0  0  0  0  0  0  0  0  0  0  0  0
   -7.1154    1.0876    0.0000 C   0  0  0  0  0  0  0  0  0  0  0  0
   -7.1154    0.2626    0.0000 O   0  0  0  0  0  0  0  0  0  0  0  0
   -6.4009    1.5001    0.0000 N   0  0  0  0  0  0  0  0  0  0  0  0
   -5.6865    1.0876    0.0000 C   0  0  1  0  0  0  0  0  0  0  0  0
   -5.6865    0.2626    0.0000 C   0  0  0  0  0  0  0  0  0  0  0  0
   -4.9720   -0.1499    0.0000 C   0  0  0  0  0  0  0  0  0  0  0  0
   -4.2183    0.1857    0.0000 C   0  0  0  0  0  0  0  0  0  0  0  0
   -3.6663   -0.4274    0.0000 N   0  0  0  0  0  0  0  0  0  0  0  0
   -4.0788   -1.1419    0.0000 C   0  0  0  0  0  0  0  0  0  0  0  0
   -3.8238   -1.9265    0.0000 C   0  0  0  0  0  0  0  0  0  0  0  0
   -4.3759   -2.5396    0.0000 C   0  0  0  0  0  0  0  0  0  0  0  0
   -5.1828   -2.3681    0.0000 C   0  0  0  0  0  0  0  0  0  0  0  0
   -5.4378   -1.5835    0.0000 C   0  0  0  0  0  0  0  0  0  0  0  0
   -4.8858   -0.9704    0.0000 C   0  0  0  0  0  0  0  0  0  0  0  0
   -4.9720    1.5001    0.0000 C   0  0  0  0  0  0  0  0  0  0  0  0
   -4.9720    2.3251    0.0000 O   0  0  0  0  0  0  0  0  0  0  0  0
   -4.2575    1.0876    0.0000 N   0  0  0  0  0  0  0  0  0  0  0  0
   -3.5430    1.5001    0.0000 C   0  0  2  0  0  0  0  0  0  0  0  0
   -3.5430    2.3251    0.0000 C   0  0  0  0  0  0  0  0  0  0  0  0
   -2.8286    2.7376    0.0000 C   0  0  0  0  0  0  0  0  0  0  0  0
   -2.8286    3.5626    0.0000 N   0  0  0  0  0  0  0  0  0  0  0  0
   -2.1141    2.3251    0.0000 O   0  0  0  0  0  0  0  0  0  0  0  0
   -2.8286    1.0876    0.0000 C   0  0  0  0  0  0  0  0  0  0  0  0
   -2.8286    0.2626    0.0000 O   0  0  0  0  0  0  0  0  0  0  0  0
   -2.1141    1.5001    0.0000 N   0  0  0  0  0  0  0  0  0  0  0  0
   -1.3996    1.0876    0.0000 C   0  0  1  0  0  0  0  0  0  0  0  0
   -1.3996    0.2626    0.0000 C   0  0  0  0  0  0  0  0  0  0  0  0
   -2.1141   -0.1499    0.0000 C   0  0  0  0  0  0  0  0  0  0  0  0
   -2.1141   -0.9749    0.0000 O   0  0  0  0  0  0  0  0  0  0  0  0
   -2.9346   -0.2361    0.0000 O   0  0  0  0  0  0  0  0  0  0  0  0
   -0.6852    1.5001    0.0000 C   0  0  0  0  0  0  0  0  0  0  0  0
   -0.6852    2.3251    0.0000 O   0  0  0  0  0  0  0  0  0  0  0  0
    0.0293    1.0876    0.0000 N   0  0  0  0  0  0  0  0  0  0  0  0
    0.7438    1.5001    0.0000 C   0  0  1  0  0  0  0  0  0  0  0  0
    0.1141    2.0331    0.0000 C   0  0  1  0  0  0  0  0  0  0  0  0
   -0.5157    2.5661    0.0000 C   0  0  0  0  0  0  0  0  0  0  0  0
    0.4264    2.7967    0.0000 O   0  0  0  0  0  0  0  0  0  0  0  0
    1.2491    2.7356    0.0000 C   0  0  0  0  0  0  0  0  0  0  0  0
    1.4697    1.9406    0.0000 O   0  0  0  0  0  0  0  0  0  0  0  0
    1.9862    3.2569    0.0000 C   0  0  2  0  0  0  0  0  0  0  0  0
    1.8927    4.0765    0.0000 C   0  0  0  0  0  0  0  0  0  0  0  0
    1.1360    4.4054    0.0000 C   0  0  0  0  0  0  0  0  0  0  0  0
    0.4729    3.9145    0.0000 O   0  0  0  0  0  0  0  0  0  0  0  0
    1.0425    5.2250    0.0000 C   0  0  0  0  0  0  0  0  0  0  0  0
    0.2858    5.5539    0.0000 C   0  0  0  0  0  0  0  0  0  0  0  0
   -0.3773    5.0630    0.0000 N   0  0  0  0  0  0  0  0  0  0  0  0
    0.1923    6.3735    0.0000 C   0  0  0  0  0  0  0  0  0  0  0  0
    0.8554    6.8644    0.0000 C   0  0  0  0  0  0  0  0  0  0  0  0
    1.6120    6.5356    0.0000 C   0  0  0  0  0  0  0  0  0  0  0  0
    1.7055    5.7159    0.0000 C   0  0  0  0  0  0  0  0  0  0  0  0
    2.7498    2.9446    0.0000 N   0  0  0  0  0  0  0  0  0  0  0  0
    3.4021    3.4497    0.0000 C   0  0  0  0  0  0  0  0  0  0  0  0
    3.2908    4.2672    0.0000 O   0  0  0  0  0  0  0  0  0  0  0  0
    4.1657    3.1374    0.0000 C   0  0  1  0  0  0  0  0  0  0  0  0
    4.8180    3.6425    0.0000 N   0  0  0  0  0  0  0  0  0  0  0  0
    5.5816    3.3302    0.0000 C   0  0  0  0  0  0  0  0  0  0  0  0
    5.6929    2.5128    0.0000 O   0  0  0  0  0  0  0  0  0  0  0  0
    6.2338    3.8354    0.0000 C   0  0  1  0  0  0  0  0  0  0  0  0
    6.1225    4.6528    0.0000 C   0  0  0  0  0  0  0  0  0  0  0  0
    6.7748    5.1580    0.0000 O   0  0  0  0  0  0  0  0  0  0  0  0
    6.9974    3.5230    0.0000 N   0  0  0  0  0  0  0  0  0  0  0  0
    7.6497    4.0282    0.0000 C   0  0  0  0  0  0  0  0  0  0  0  0
    7.5384    4.8456    0.0000 O   0  0  0  0  0  0  0  0  0  0  0  0
    8.4133    3.7159    0.0000 C   0  0  0  0  0  0  0  0  0  0  0  0
    9.0656    4.2210    0.0000 N   0  0  0  0  0  0  0  0  0  0  0  0
    9.8292    3.9087    0.0000 C   0  0  0  0  0  0  0  0  0  0  0  0
   10.4814    4.4138    0.0000 O   0  0  0  0  0  0  0  0  0  0  0  0
    9.9405    3.0912    0.0000 C   0  0  2  0  0  0  0  0  0  0  0  0
   10.7041    2.7789    0.0000 C   0  0  0  0  0  0  0  0  0  0  0  0
   11.3564    3.2841    0.0000 C   0  0  0  0  0  0  0  0  0  0  0  0
   11.2450    4.1015    0.0000 O   0  0  0  0  0  0  0  0  0  0  0  0
   12.1200    2.9718    0.0000 O   0  0  0  0  0  0  0  0  0  0  0  0
    9.2882    2.5861    0.0000 N   0  0  0  0  0  0  0  0  0  0  0  0
    9.3996    1.7687    0.0000 C   0  0  0  0  0  0  0  0  0  0  0  0
   10.1632    1.4563    0.0000 O   0  0  0  0  0  0  0  0  0  0  0  0
    8.7473    1.2635    0.0000 C   0  0  1  0  0  0  0  0  0  0  0  0
    8.8586    0.4461    0.0000 C   0  0  0  0  0  0  0  0  0  0  0  0
    7.9837    1.5758    0.0000 N   0  0  0  0  0  0  0  0  0  0  0  0
    7.3314    1.0707    0.0000 C   0  0  0  0  0  0  0  0  0  0  0  0
    7.4427    0.2532    0.0000 O   0  0  0  0  0  0  0  0  0  0  0  0
    6.5678    1.3830    0.0000 C   0  0  2  0  0  0  0  0  0  0  0  0
    6.6791    0.5655    0.0000 C   0  0  0  0  0  0  0  0  0  0  0  0
    6.0269    0.0604    0.0000 C   0  0  0  0  0  0  0  0  0  0  0  0
    6.1382   -0.7571    0.0000 O   0  0  0  0  0  0  0  0  0  0  0  0
    5.2633    0.3727    0.0000 O   0  0  0  0  0  0  0  0  0  0  0  0
    5.9155    0.8779    0.0000 N   0  0  0  0  0  0  0  0  0  0  0  0
    5.1519    1.1902    0.0000 C   0  0  0  0  0  0  0  0  0  0  0  0
    5.0406    2.0076    0.0000 O   0  0  0  0  0  0  0  0  0  0  0  0
    4.4997    0.6850    0.0000 C   0  0  2  0  0  0  0  0  0  0  0  0
    4.6110   -0.1324    0.0000 C   0  0  0  0  0  0  0  0  0  0  0  0
    3.9587   -0.6376    0.0000 C   0  0  0  0  0  0  0  0  0  0  0  0
    4.0701   -1.4550    0.0000 C   0  0  0  0  0  0  0  0  0  0  0  0
    3.4178   -1.9602    0.0000 N   0  0  0  0  0  0  0  0  0  0  0  0
    3.7361    0.9973    0.0000 N   0  0  0  0  0  0  0  0  0  0  0  0
    3.0838    0.4922    0.0000 C   0  0  0  0  0  0  0  0  0  0  0  0
    3.1951   -0.3253    0.0000 O   0  0  0  0  0  0  0  0  0  0  0  0
    2.3202    0.8045    0.0000 C   0  0  0  0  0  0  0  0  0  0  0  0
    1.6679    0.2994    0.0000 N   0  0  0  0  0  0  0  0  0  0  0  0
    0.9043    0.6117    0.0000 C   0  0  0  0  0  0  0  0  0  0  0  0
    0.2632    0.0925    0.0000 O   0  0  0  0  0  0  0  0  0  0  0  0
    4.0544    3.9548    0.0000 C   0  0  2  0  0  0  0  0  0  0  0  0
    3.6202    4.6563    0.0000 C   0  0  0  0  0  0  0  0  0  0  0  0
    4.7066    4.4600    0.0000 C   0  0  0  0  0  0  0  0  0  0  0  0
    4.5953    5.2774    0.0000 C   0  0  0  0  0  0  0  0  0  0  0  0
    3.8317    5.5897    0.0000 O   0  0  0  0  0  0  0  0  0  0  0  0
    5.2476    5.7826    0.0000 O   0  0  0  0  0  0  0  0  0  0  0  0
  1  2  1  0  0  0  0
  2  3  1  0  0  0  0
  3  4  1  0  0  0  0
  4  5  1  0  0  0  0
  5  6  1  0  0  0  0
  6  7  1  0  0  0  0
  7  8  1  0  0  0  0
  8  9  1  0  0  0  0
  9 10  1  0  0  0  0
 10 11  2  0  0  0  0
 10 12  1  0  0  0  0
 13 12  1  6  0  0  0
 13 14  1  0  0  0  0
 14 15  1  0  0  0  0
 15 16  4  0  0  0  0
 16 17  4  0  0  0  0
 17 18  4  0  0  0  0
 18 19  4  0  0  0  0
 19 20  4  0  0  0  0
 20 21  4  0  0  0  0
 21 22  4  0  0  0  0
 22 23  4  0  0  0  0
 15 23  4  0  0  0  0
 18 23  4  0  0  0  0
 13 24  1  0  0  0  0
 24 25  2  0  0  0  0
 24 26  1  0  0  0  0
 27 26  1  6  0  0  0
 27 28  1  0  0  0  0
 28 29  1  0  0  0  0
 29 30  1  0  0  0  0
 29 31  2  0  0  0  0
 27 32  1  0  0  0  0
 32 33  2  0  0  0  0
 32 34  1  0  0  0  0
 35 34  1  6  0  0  0
 35 36  1  0  0  0  0
 36 37  1  0  0  0  0
 37 38  1  0  0  0  0
 37 39  2  0  0  0  0
 35 40  1  0  0  0  0
 40 41  2  0  0  0  0
 40 42  1  0  0  0  0
 43 42  1  6  0  0  0
 43 44  1  0  0  0  0
 44 45  1  1  0  0  0
 44 46  1  0  0  0  0
 46 47  1  0  0  0  0
 47 48  2  0  0  0  0
 47 49  1  0  0  0  0
 49 50  1  6  0  0  0
 50 51  1  0  0  0  0
 51 52  2  0  0  0  0
 51 53  1  0  0  0  0
 53 54  4  0  0  0  0
 54 55  1  0  0  0  0
 54 56  4  0  0  0  0
 56 57  4  0  0  0  0
 57 58  4  0  0  0  0
 58 59  4  0  0  0  0
 53 59  4  0  0  0  0
 49 60  1  0  0  0  0
 60 61  1  0  0  0  0
 61 62  2  0  0  0  0
 61 63  1  0  0  0  0
 63 64  1  0  0  0  0
 64 65  1  0  0  0  0
 65 66  2  0  0  0  0
 65 67  1  0  0  0  0
 67 68  1  1  0  0  0
 68 69  1  0  0  0  0
 67 70  1  0  0  0  0
 70 71  1  0  0  0  0
 71 72  2  0  0  0  0
 71 73  1  0  0  0  0
 73 74  1  0  0  0  0
 74 75  1  0  0  0  0
 75 76  2  0  0  0  0
 75 77  1  0  0  0  0
 77 78  1  6  0  0  0
 78 79  1  0  0  0  0
 79 80  1  0  0  0  0
 79 81  2  0  0  0  0
 77 82  1  0  0  0  0
 82 83  1  0  0  0  0
 83 84  2  0  0  0  0
 83 85  1  0  0  0  0
 85 86  1  1  0  0  0
 85 87  1  0  0  0  0
 87 88  1  0  0  0  0
 88 89  2  0  0  0  0
 88 90  1  0  0  0  0
 90 91  1  1  0  0  0
 91 92  1  0  0  0  0
 92 93  1  0  0  0  0
 92 94  2  0  0  0  0
 90 95  1  0  0  0  0
 95 96  1  0  0  0  0
 96 97  2  0  0  0  0
 96 98  1  0  0  0  0
 98 99  1  6  0  0  0
 99100  1  0  0  0  0
100101  1  0  0  0  0
101102  1  0  0  0  0
 98103  1  0  0  0  0
103104  1  0  0  0  0
104105  2  0  0  0  0
104106  1  0  0  0  0
106107  1  0  0  0  0
107108  1  0  0  0  0
 43108  1  0  0  0  0
108109  2  0  0  0  0
 63110  1  1  0  0  0
110111  1  6  0  0  0
110112  1  0  0  0  0
112113  1  0  0  0  0
113114  1  0  0  0  0
113115  2  0  0  0  0
M  STY  1   1 DAT
M  SLB  1   1   1
M  SAL   1  1  17
M  SDT   1 MRV_IMPLICIT_H
M  SDD   1     0.0000    0.0000    DA    ALL  1       1
M  SED   1 IMPL_H1
M  END
>  <ID>
783

>  <PREFERRED_NAME>
daptomycin

>  <CAS_RN>
103060-53-3

>  <SYNONYMS>
daptomycin
cidecin
cubicin
dapcin
daptomicina
daptomycine
daptomycinum
LY146032
LY-146032
deptomycin

>  <URL>
http://drugcentral.org/drugcard/783/view

$$$$
