daridorexant
  -INDIGO-06102311222D

 32 36  0  0  1  0  0  0  0  0999 V2000
    3.2789    2.0625    0.0000 C   0  0  0  0  0  0  0  0  0  0  0  0
    3.2789    1.2375    0.0000 C   0  0  0  0  0  0  0  0  0  0  0  0
    3.9934    0.8250    0.0000 C   0  0  0  0  0  0  0  0  0  0  0  0
    3.9934    0.0000    0.0000 C   0  0  0  0  0  0  0  0  0  0  0  0
    3.2789   -0.4125    0.0000 C   0  0  0  0  0  0  0  0  0  0  0  0
    2.5645    0.0000    0.0000 C   0  0  0  0  0  0  0  0  0  0  0  0
    2.5645    0.8250    0.0000 C   0  0  0  0  0  0  0  0  0  0  0  0
    1.7798    1.0799    0.0000 N   0  0  0  0  0  0  0  0  0  0  0  0
    1.2949    0.4125    0.0000 C   0  0  0  0  0  0  0  0  0  0  0  0
    1.7798   -0.2549    0.0000 N   0  0  0  0  0  0  0  0  0  0  0  0
    0.4699    0.4125    0.0000 C   0  0  2  0  0  0  0  0  0  0  0  0
   -0.3371    0.5840    0.0000 C   0  0  0  0  0  0  0  0  0  0  0  0
   -0.7496   -0.1304    0.0000 C   0  0  0  0  0  0  0  0  0  0  0  0
   -0.1975   -0.7435    0.0000 C   0  0  0  0  0  0  0  0  0  0  0  0
    0.5561   -0.4080    0.0000 N   0  0  0  0  0  0  0  0  0  0  0  0
    1.2706   -0.8205    0.0000 C   0  0  0  0  0  0  0  0  0  0  0  0
    2.0776   -0.6490    0.0000 O   0  0  0  0  0  0  0  0  0  0  0  0
    1.2706   -1.6455    0.0000 C   0  0  0  0  0  0  0  0  0  0  0  0
    1.9851   -2.0580    0.0000 C   0  0  0  0  0  0  0  0  0  0  0  0
    1.9851   -2.8830    0.0000 C   0  0  0  0  0  0  0  0  0  0  0  0
    1.2706   -3.2955    0.0000 C   0  0  0  0  0  0  0  0  0  0  0  0
    0.5561   -2.8830    0.0000 C   0  0  0  0  0  0  0  0  0  0  0  0
    0.5561   -2.0580    0.0000 C   0  0  0  0  0  0  0  0  0  0  0  0
   -0.1583   -3.2955    0.0000 O   0  0  0  0  0  0  0  0  0  0  0  0
   -0.1583   -4.1205    0.0000 C   0  0  0  0  0  0  0  0  0  0  0  0
    2.6996   -1.6455    0.0000 N   0  0  0  0  0  0  0  0  0  0  0  0
    2.7858   -0.8250    0.0000 N   0  0  0  0  0  0  0  0  0  0  0  0
    3.5928   -0.6535    0.0000 C   0  0  0  0  0  0  0  0  0  0  0  0
    4.0053   -1.3679    0.0000 C   0  0  0  0  0  0  0  0  0  0  0  0
    3.4532   -1.9810    0.0000 N   0  0  0  0  0  0  0  0  0  0  0  0
    0.5561    1.2330    0.0000 C   0  0  0  0  0  0  0  0  0  0  0  0
    4.7079    1.2375    0.0000 Cl  0  0  0  0  0  0  0  0  0  0  0  0
  1  2  1  0  0  0  0
  2  3  4  0  0  0  0
  3  4  4  0  0  0  0
  4  5  4  0  0  0  0
  5  6  4  0  0  0  0
  6  7  4  0  0  0  0
  2  7  4  0  0  0  0
  7  8  4  0  0  0  0
  8  9  4  0  0  0  0
  9 10  4  0  0  0  0
  6 10  4  0  0  0  0
 11  9  1  1  0  0  0
 11 12  1  0  0  0  0
 12 13  1  0  0  0  0
 13 14  1  0  0  0  0
 14 15  1  0  0  0  0
 11 15  1  0  0  0  0
 15 16  1  0  0  0  0
 16 17  2  0  0  0  0
 16 18  1  0  0  0  0
 18 19  4  0  0  0  0
 19 20  4  0  0  0  0
 20 21  4  0  0  0  0
 21 22  4  0  0  0  0
 22 23  4  0  0  0  0
 18 23  4  0  0  0  0
 22 24  1  0  0  0  0
 24 25  1  0  0  0  0
 19 26  1  0  0  0  0
 26 27  4  0  0  0  0
 27 28  4  0  0  0  0
 28 29  4  0  0  0  0
 29 30  4  0  0  0  0
 26 30  4  0  0  0  0
 11 31  1  6  0  0  0
  3 32  1  0  0  0  0
M  STY  1   1 DAT
M  SLB  1   1   1
M  SAL   1  1  10
M  SDT   1 MRV_IMPLICIT_H
M  SDD   1     0.0000    0.0000    DA    ALL  1       1
M  SED   1 IMPL_H1
M  END
>  <ID>
5493

>  <PREFERRED_NAME>
daridorexant

>  <CAS_RN>
1505484-82-1

>  <SYNONYMS>
daridorexant
quviviq
daridorexant hydrochloride
ACT-541468
nemorexant

>  <URL>
http://drugcentral.org/drugcard/5493/view

$$$$
