darifenacin
  -INDIGO-06102310582D

 32 36  0  0  1  0  0  0  0  0999 V2000
    5.8606    6.7522    0.0000 N   0  0  0  0  0  0  0  0  0  0  0  0
    6.3455    6.0848    0.0000 C   0  0  0  0  0  0  0  0  0  0  0  0
    7.1660    6.1710    0.0000 O   0  0  0  0  0  0  0  0  0  0  0  0
    6.0100    5.3311    0.0000 C   0  0  0  0  0  0  0  0  0  0  0  0
    5.6744    4.5775    0.0000 C   0  0  2  0  0  0  0  0  0  0  0  0
    6.0869    3.8630    0.0000 C   0  0  0  0  0  0  0  0  0  0  0  0
    5.5349    3.2499    0.0000 C   0  0  0  0  0  0  0  0  0  0  0  0
    4.7812    3.5854    0.0000 N   0  0  0  0  0  0  0  0  0  0  0  0
    4.0668    3.1729    0.0000 C   0  0  0  0  0  0  0  0  0  0  0  0
    4.0668    2.3479    0.0000 C   0  0  0  0  0  0  0  0  0  0  0  0
    3.3523    1.9354    0.0000 C   0  0  0  0  0  0  0  0  0  0  0  0
    3.3523    1.1104    0.0000 C   0  0  0  0  0  0  0  0  0  0  0  0
    2.6378    0.6979    0.0000 C   0  0  0  0  0  0  0  0  0  0  0  0
    1.9233    1.1104    0.0000 C   0  0  0  0  0  0  0  0  0  0  0  0
    1.1387    0.8555    0.0000 O   0  0  0  0  0  0  0  0  0  0  0  0
    0.6538    1.5229    0.0000 C   0  0  0  0  0  0  0  0  0  0  0  0
    1.1387    2.1904    0.0000 C   0  0  0  0  0  0  0  0  0  0  0  0
    1.9233    1.9354    0.0000 C   0  0  0  0  0  0  0  0  0  0  0  0
    2.6378    2.3479    0.0000 C   0  0  0  0  0  0  0  0  0  0  0  0
    4.8675    4.4059    0.0000 C   0  0  0  0  0  0  0  0  0  0  0  0
    5.2563    5.6667    0.0000 C   0  0  0  0  0  0  0  0  0  0  0  0
    4.5889    5.1818    0.0000 C   0  0  0  0  0  0  0  0  0  0  0  0
    3.8352    5.5173    0.0000 C   0  0  0  0  0  0  0  0  0  0  0  0
    3.7490    6.3378    0.0000 C   0  0  0  0  0  0  0  0  0  0  0  0
    4.4164    6.8227    0.0000 C   0  0  0  0  0  0  0  0  0  0  0  0
    5.1701    6.4872    0.0000 C   0  0  0  0  0  0  0  0  0  0  0  0
    6.7637    4.9956    0.0000 C   0  0  0  0  0  0  0  0  0  0  0  0
    7.4311    5.4805    0.0000 C   0  0  0  0  0  0  0  0  0  0  0  0
    8.1848    5.1449    0.0000 C   0  0  0  0  0  0  0  0  0  0  0  0
    8.2710    4.3245    0.0000 C   0  0  0  0  0  0  0  0  0  0  0  0
    7.6036    3.8395    0.0000 C   0  0  0  0  0  0  0  0  0  0  0  0
    6.8499    4.1751    0.0000 C   0  0  0  0  0  0  0  0  0  0  0  0
  1  2  1  0  0  0  0
  2  3  2  0  0  0  0
  2  4  1  0  0  0  0
  5  4  1  6  0  0  0
  5  6  1  0  0  0  0
  6  7  1  0  0  0  0
  7  8  1  0  0  0  0
  8  9  1  0  0  0  0
  9 10  1  0  0  0  0
 10 11  1  0  0  0  0
 11 12  4  0  0  0  0
 12 13  4  0  0  0  0
 13 14  4  0  0  0  0
 14 15  1  0  0  0  0
 15 16  1  0  0  0  0
 16 17  1  0  0  0  0
 17 18  1  0  0  0  0
 14 18  4  0  0  0  0
 18 19  4  0  0  0  0
 11 19  4  0  0  0  0
  8 20  1  0  0  0  0
  5 20  1  0  0  0  0
  4 21  1  0  0  0  0
 21 22  4  0  0  0  0
 22 23  4  0  0  0  0
 23 24  4  0  0  0  0
 24 25  4  0  0  0  0
 25 26  4  0  0  0  0
 21 26  4  0  0  0  0
  4 27  1  0  0  0  0
 27 28  4  0  0  0  0
 28 29  4  0  0  0  0
 29 30  4  0  0  0  0
 30 31  4  0  0  0  0
 31 32  4  0  0  0  0
 27 32  4  0  0  0  0
M  END
>  <ID>
784

>  <PREFERRED_NAME>
darifenacin

>  <CAS_RN>
133099-04-4

>  <SYNONYMS>
darifenacin
enablex
darifenacin hydrobromide
emselex

>  <URL>
http://drugcentral.org/drugcard/784/view

$$$$
