dasatinib
  -INDIGO-06102310582D

 33 36  0  0  0  0  0  0  0  0999 V2000
    2.1434   -2.8875    0.0000 C   0  0  0  0  0  0  0  0  0  0  0  0
    1.4289   -2.4750    0.0000 C   0  0  0  0  0  0  0  0  0  0  0  0
    0.7145   -2.8875    0.0000 N   0  0  0  0  0  0  0  0  0  0  0  0
    0.0000   -2.4750    0.0000 C   0  0  0  0  0  0  0  0  0  0  0  0
   -0.7145   -2.8875    0.0000 N   0  0  0  0  0  0  0  0  0  0  0  0
   -0.7145   -3.7125    0.0000 C   0  0  0  0  0  0  0  0  0  0  0  0
   -0.0470   -4.1974    0.0000 N   0  0  0  0  0  0  0  0  0  0  0  0
   -0.3020   -4.9820    0.0000 C   0  0  0  0  0  0  0  0  0  0  0  0
   -1.1270   -4.9820    0.0000 C   0  0  0  0  0  0  0  0  0  0  0  0
   -1.3819   -4.1974    0.0000 S   0  0  0  0  0  0  0  0  0  0  0  0
   -1.6119   -5.6495    0.0000 C   0  0  0  0  0  0  0  0  0  0  0  0
   -2.4324   -5.5632    0.0000 O   0  0  0  0  0  0  0  0  0  0  0  0
   -1.2763   -6.4032    0.0000 N   0  0  0  0  0  0  0  0  0  0  0  0
   -1.7613   -7.0706    0.0000 C   0  0  0  0  0  0  0  0  0  0  0  0
   -1.4257   -7.8243    0.0000 C   0  0  0  0  0  0  0  0  0  0  0  0
   -0.6052   -7.9105    0.0000 C   0  0  0  0  0  0  0  0  0  0  0  0
   -1.9106   -8.4917    0.0000 C   0  0  0  0  0  0  0  0  0  0  0  0
   -2.7311   -8.4055    0.0000 C   0  0  0  0  0  0  0  0  0  0  0  0
   -3.0667   -7.6518    0.0000 C   0  0  0  0  0  0  0  0  0  0  0  0
   -2.5817   -6.9844    0.0000 C   0  0  0  0  0  0  0  0  0  0  0  0
   -2.9173   -6.2307    0.0000 Cl  0  0  0  0  0  0  0  0  0  0  0  0
    0.0000   -1.6500    0.0000 C   0  0  0  0  0  0  0  0  0  0  0  0
    0.7145   -1.2375    0.0000 C   0  0  0  0  0  0  0  0  0  0  0  0
    1.4289   -1.6500    0.0000 N   0  0  0  0  0  0  0  0  0  0  0  0
    0.7145   -0.4125    0.0000 N   0  0  0  0  0  0  0  0  0  0  0  0
    0.0000    0.0000    0.0000 C   0  0  0  0  0  0  0  0  0  0  0  0
    0.0000    0.8250    0.0000 C   0  0  0  0  0  0  0  0  0  0  0  0
    0.7145    1.2375    0.0000 N   0  0  0  0  0  0  0  0  0  0  0  0
    0.7145    2.0625    0.0000 C   0  0  0  0  0  0  0  0  0  0  0  0
    1.4289    2.4750    0.0000 C   0  0  0  0  0  0  0  0  0  0  0  0
    1.4289    3.3000    0.0000 O   0  0  0  0  0  0  0  0  0  0  0  0
    1.4289    0.8250    0.0000 C   0  0  0  0  0  0  0  0  0  0  0  0
    1.4289    0.0000    0.0000 C   0  0  0  0  0  0  0  0  0  0  0  0
  1  2  1  0  0  0  0
  2  3  4  0  0  0  0
  3  4  4  0  0  0  0
  4  5  1  0  0  0  0
  5  6  1  0  0  0  0
  6  7  4  0  0  0  0
  7  8  4  0  0  0  0
  8  9  4  0  0  0  0
  9 10  4  0  0  0  0
  6 10  4  0  0  0  0
  9 11  1  0  0  0  0
 11 12  2  0  0  0  0
 11 13  1  0  0  0  0
 13 14  1  0  0  0  0
 14 15  4  0  0  0  0
 15 16  1  0  0  0  0
 15 17  4  0  0  0  0
 17 18  4  0  0  0  0
 18 19  4  0  0  0  0
 19 20  4  0  0  0  0
 14 20  4  0  0  0  0
 20 21  1  0  0  0  0
  4 22  4  0  0  0  0
 22 23  4  0  0  0  0
 23 24  4  0  0  0  0
  2 24  4  0  0  0  0
 23 25  1  0  0  0  0
 25 26  1  0  0  0  0
 26 27  1  0  0  0  0
 27 28  1  0  0  0  0
 28 29  1  0  0  0  0
 29 30  1  0  0  0  0
 30 31  1  0  0  0  0
 28 32  1  0  0  0  0
 32 33  1  0  0  0  0
 25 33  1  0  0  0  0
M  END
>  <ID>
785

>  <PREFERRED_NAME>
dasatinib

>  <CAS_RN>
302962-49-8

>  <SYNONYMS>
dasatinib
sprycel
spyrcel
BMS-354825
dasatinib hydrate

>  <URL>
http://drugcentral.org/drugcard/785/view

$$$$
