deflazacort
  -INDIGO-06102310582D

 32 36  0  0  1  0  0  0  0  0999 V2000
    4.4873   -6.2081    0.0000 C   0  0  0  0  0  0  0  0  0  0  0  0
    4.3113   -5.4021    0.0000 C   0  0  0  0  0  0  0  0  0  0  0  0
    3.5252   -5.1516    0.0000 O   0  0  0  0  0  0  0  0  0  0  0  0
    4.9212   -4.8466    0.0000 O   0  0  0  0  0  0  0  0  0  0  0  0
    4.7452   -4.0406    0.0000 C   0  0  0  0  0  0  0  0  0  0  0  0
    5.2398   -3.4675    0.0000 C   0  0  0  0  0  0  0  0  0  0  0  0
    6.1412   -3.7356    0.0000 O   0  0  0  0  0  0  0  0  0  0  0  0
    5.1791   -2.6791    0.0000 C   0  0  1  0  0  0  0  0  0  0  0  0
    4.4669   -3.0956    0.0000 N   0  0  0  0  0  0  0  0  0  0  0  0
    3.8507   -2.5471    0.0000 C   0  0  0  0  0  0  0  0  0  0  0  0
    3.0447   -2.7231    0.0000 C   0  0  0  0  0  0  0  0  0  0  0  0
    4.1820   -1.7915    0.0000 O   0  0  0  0  0  0  0  0  0  0  0  0
    5.0030   -1.8731    0.0000 C   0  0  2  0  0  0  0  0  0  0  0  0
    5.7151   -1.4566    0.0000 C   0  0  0  0  0  0  0  0  0  0  0  0
    6.3313   -2.0052    0.0000 C   0  0  1  0  0  0  0  0  0  0  0  0
    7.1513   -1.9143    0.0000 C   0  0  2  0  0  0  0  0  0  0  0  0
    7.4826   -1.1588    0.0000 C   0  0  0  0  0  0  0  0  0  0  0  0
    8.3026   -1.0679    0.0000 C   0  0  0  0  0  0  0  0  0  0  0  0
    8.7913   -1.7326    0.0000 C   0  0  0  0  0  0  0  0  0  0  0  0
    9.6112   -1.6417    0.0000 C   0  0  0  0  0  0  0  0  0  0  0  0
   10.0999   -2.3064    0.0000 C   0  0  0  0  0  0  0  0  0  0  0  0
   10.9199   -2.2156    0.0000 O   0  0  0  0  0  0  0  0  0  0  0  0
    9.7686   -3.0620    0.0000 C   0  0  0  0  0  0  0  0  0  0  0  0
    8.9486   -3.1529    0.0000 C   0  0  0  0  0  0  0  0  0  0  0  0
    8.4600   -2.4882    0.0000 C   0  0  1  0  0  0  0  0  0  0  0  0
    8.1286   -3.2437    0.0000 C   0  0  0  0  0  0  0  0  0  0  0  0
    7.6400   -2.5790    0.0000 C   0  0  1  0  0  0  0  0  0  0  0  0
    7.3087   -3.3346    0.0000 C   0  0  1  0  0  0  0  0  0  0  0  0
    7.7973   -3.9993    0.0000 O   0  0  0  0  0  0  0  0  0  0  0  0
    6.4887   -3.4254    0.0000 C   0  0  0  0  0  0  0  0  0  0  0  0
    6.0000   -2.7607    0.0000 C   0  0  2  0  0  0  0  0  0  0  0  0
    5.5915   -3.4775    0.0000 C   0  0  0  0  0  0  0  0  0  0  0  0
  1  2  1  0  0  0  0
  2  3  2  0  0  0  0
  2  4  1  0  0  0  0
  4  5  1  0  0  0  0
  5  6  1  0  0  0  0
  6  7  2  0  0  0  0
  8  6  1  1  0  0  0
  8  9  1  0  0  0  0
  9 10  2  0  0  0  0
 10 11  1  0  0  0  0
 10 12  1  0  0  0  0
 13 12  1  6  0  0  0
  8 13  1  0  0  0  0
 13 14  1  0  0  0  0
 15 14  1  1  0  0  0
 15 16  1  0  0  0  0
 16 17  1  6  0  0  0
 17 18  1  0  0  0  0
 18 19  1  0  0  0  0
 19 20  2  0  0  0  0
 20 21  1  0  0  0  0
 21 22  2  0  0  0  0
 21 23  1  0  0  0  0
 23 24  2  0  0  0  0
 24 25  1  0  0  0  0
 19 25  1  0  0  0  0
 25 26  1  1  0  0  0
 27 25  1  1  0  0  0
 16 27  1  0  0  0  0
 27 28  1  0  0  0  0
 28 29  1  1  0  0  0
 28 30  1  0  0  0  0
 30 31  1  0  0  0  0
  8 31  1  0  0  0  0
 15 31  1  0  0  0  0
 31 32  1  1  0  0  0
M  END
>  <ID>
793

>  <PREFERRED_NAME>
deflazacort

>  <CAS_RN>
14484-47-0

>  <SYNONYMS>
deflazacort
azacort
azacortinol
calcort
dezacor
dezacort
flantadin
lantadin
oxazacort

>  <URL>
http://drugcentral.org/drugcard/793/view

$$$$
