degarelix
  -INDIGO-06102311122D

117124  0  0  1  0  0  0  0  0999 V2000
   10.7954   -8.5062    0.0000 C   0  0  0  0  0  0  0  0  0  0  0  0
   11.0918   -7.7362    0.0000 C   0  0  0  0  0  0  0  0  0  0  0  0
   11.9068   -7.6079    0.0000 C   0  0  0  0  0  0  0  0  0  0  0  0
   10.5732   -7.0946    0.0000 C   0  0  0  0  0  0  0  0  0  0  0  0
   10.8695   -6.3247    0.0000 C   0  0  2  0  0  0  0  0  0  0  0  0
   10.3509   -5.6831    0.0000 N   0  0  0  0  0  0  0  0  0  0  0  0
    9.5360   -5.8114    0.0000 C   0  0  0  0  0  0  0  0  0  0  0  0
    9.2396   -6.5813    0.0000 O   0  0  0  0  0  0  0  0  0  0  0  0
    9.0174   -5.1698    0.0000 C   0  0  1  0  0  0  0  0  0  0  0  0
    9.3137   -4.3998    0.0000 C   0  0  0  0  0  0  0  0  0  0  0  0
   10.1287   -4.2715    0.0000 C   0  0  0  0  0  0  0  0  0  0  0  0
   10.4250   -3.5016    0.0000 C   0  0  0  0  0  0  0  0  0  0  0  0
   11.2400   -3.3733    0.0000 C   0  0  0  0  0  0  0  0  0  0  0  0
   11.7586   -4.0149    0.0000 C   0  0  0  0  0  0  0  0  0  0  0  0
   12.8565   -4.0925    0.0000 N   0  0  0  0  0  0  0  0  0  0  0  0
   13.1529   -3.3226    0.0000 C   0  0  0  0  0  0  0  0  0  0  0  0
   12.6343   -2.6810    0.0000 N   0  0  0  0  0  0  0  0  0  0  0  0
   13.9678   -3.1943    0.0000 O   0  0  0  0  0  0  0  0  0  0  0  0
   11.4622   -4.7848    0.0000 C   0  0  0  0  0  0  0  0  0  0  0  0
   10.6473   -4.9131    0.0000 C   0  0  0  0  0  0  0  0  0  0  0  0
    8.2024   -5.2981    0.0000 N   0  0  0  0  0  0  0  0  0  0  0  0
    7.6838   -4.6565    0.0000 C   0  0  0  0  0  0  0  0  0  0  0  0
    7.9801   -3.8866    0.0000 O   0  0  0  0  0  0  0  0  0  0  0  0
    6.8688   -4.7848    0.0000 C   0  0  2  0  0  0  0  0  0  0  0  0
    6.5725   -5.5547    0.0000 C   0  0  0  0  0  0  0  0  0  0  0  0
    7.0911   -6.1964    0.0000 C   0  0  0  0  0  0  0  0  0  0  0  0
    7.9060   -6.0680    0.0000 C   0  0  0  0  0  0  0  0  0  0  0  0
    8.4247   -6.7097    0.0000 C   0  0  0  0  0  0  0  0  0  0  0  0
    8.1283   -7.4796    0.0000 C   0  0  0  0  0  0  0  0  0  0  0  0
    8.6469   -8.1212    0.0000 N   0  0  0  0  0  0  0  0  0  0  0  0
    8.3506   -8.8911    0.0000 C   0  0  0  0  0  0  0  0  0  0  0  0
    7.5356   -9.0195    0.0000 O   0  0  0  0  0  0  0  0  0  0  0  0
    8.8692   -9.5328    0.0000 C   0  0  2  0  0  0  0  0  0  0  0  0
    8.5728  -10.3027    0.0000 C   0  0  0  0  0  0  0  0  0  0  0  0
    9.0914  -10.9443    0.0000 C   0  0  0  0  0  0  0  0  0  0  0  0
    8.7951  -11.7142    0.0000 O   0  0  0  0  0  0  0  0  0  0  0  0
    9.9064  -10.8160    0.0000 N   0  0  0  0  0  0  0  0  0  0  0  0
   10.2027  -10.0460    0.0000 C   0  0  0  0  0  0  0  0  0  0  0  0
   11.0177   -9.9177    0.0000 O   0  0  0  0  0  0  0  0  0  0  0  0
    9.6841   -9.4044    0.0000 N   0  0  0  0  0  0  0  0  0  0  0  0
    7.3133   -7.6079    0.0000 C   0  0  0  0  0  0  0  0  0  0  0  0
    6.7947   -6.9663    0.0000 C   0  0  0  0  0  0  0  0  0  0  0  0
    6.3502   -4.1432    0.0000 N   0  0  0  0  0  0  0  0  0  0  0  0
    5.5353   -4.2715    0.0000 C   0  0  0  0  0  0  0  0  0  0  0  0
    5.2389   -5.0415    0.0000 O   0  0  0  0  0  0  0  0  0  0  0  0
    5.0166   -3.6299    0.0000 C   0  0  2  0  0  0  0  0  0  0  0  0
    5.3130   -2.8600    0.0000 C   0  0  0  0  0  0  0  0  0  0  0  0
    6.1280   -2.7316    0.0000 O   0  0  0  0  0  0  0  0  0  0  0  0
    4.2017   -3.7582    0.0000 N   0  0  0  0  0  0  0  0  0  0  0  0
    3.6831   -3.1166    0.0000 C   0  0  0  0  0  0  0  0  0  0  0  0
    3.9794   -2.3467    0.0000 O   0  0  0  0  0  0  0  0  0  0  0  0
    2.8681   -3.2449    0.0000 C   0  0  1  0  0  0  0  0  0  0  0  0
    2.5718   -4.0149    0.0000 C   0  0  0  0  0  0  0  0  0  0  0  0
    3.0904   -4.6565    0.0000 C   0  0  0  0  0  0  0  0  0  0  0  0
    3.9053   -4.5282    0.0000 C   0  0  0  0  0  0  0  0  0  0  0  0
    4.4239   -5.1698    0.0000 N   0  0  0  0  0  0  0  0  0  0  0  0
    4.1276   -5.9397    0.0000 C   0  0  0  0  0  0  0  0  0  0  0  0
    3.3126   -6.0680    0.0000 C   0  0  0  0  0  0  0  0  0  0  0  0
    2.7940   -5.4264    0.0000 C   0  0  0  0  0  0  0  0  0  0  0  0
    2.3495   -2.6033    0.0000 N   0  0  0  0  0  0  0  0  0  0  0  0
    1.5345   -2.7316    0.0000 C   0  0  0  0  0  0  0  0  0  0  0  0
    1.2382   -3.5016    0.0000 O   0  0  0  0  0  0  0  0  0  0  0  0
    1.0159   -2.0900    0.0000 C   0  0  1  0  0  0  0  0  0  0  0  0
    1.3123   -1.3201    0.0000 C   0  0  0  0  0  0  0  0  0  0  0  0
    2.1272   -1.1918    0.0000 C   0  0  0  0  0  0  0  0  0  0  0  0
    2.4236   -0.4218    0.0000 C   0  0  0  0  0  0  0  0  0  0  0  0
    3.2386   -0.2935    0.0000 C   0  0  0  0  0  0  0  0  0  0  0  0
    3.7572   -0.9351    0.0000 C   0  0  0  0  0  0  0  0  0  0  0  0
    4.5721   -0.8068    0.0000 Cl  0  0  0  0  0  0  0  0  0  0  0  0
    3.4608   -1.7051    0.0000 C   0  0  0  0  0  0  0  0  0  0  0  0
    2.6459   -1.8334    0.0000 C   0  0  0  0  0  0  0  0  0  0  0  0
    0.2010   -2.2184    0.0000 N   0  0  0  0  0  0  0  0  0  0  0  0
   -0.3176   -1.5767    0.0000 C   0  0  0  0  0  0  0  0  0  0  0  0
   -0.0213   -0.8068    0.0000 O   0  0  0  0  0  0  0  0  0  0  0  0
   -1.1326   -1.7051    0.0000 C   0  0  1  0  0  0  0  0  0  0  0  0
   -1.6512   -1.0634    0.0000 C   0  0  0  0  0  0  0  0  0  0  0  0
   -2.4662   -1.1918    0.0000 C   0  0  0  0  0  0  0  0  0  0  0  0
   -2.9848   -0.5502    0.0000 C   0  0  0  0  0  0  0  0  0  0  0  0
   -3.7997   -0.6785    0.0000 C   0  0  0  0  0  0  0  0  0  0  0  0
   -4.0961   -1.4484    0.0000 C   0  0  0  0  0  0  0  0  0  0  0  0
   -4.9110   -1.5767    0.0000 C   0  0  0  0  0  0  0  0  0  0  0  0
   -5.4297   -0.9351    0.0000 C   0  0  0  0  0  0  0  0  0  0  0  0
   -5.1333   -0.1652    0.0000 C   0  0  0  0  0  0  0  0  0  0  0  0
   -4.3183   -0.0369    0.0000 C   0  0  0  0  0  0  0  0  0  0  0  0
   -3.5775   -2.0900    0.0000 C   0  0  0  0  0  0  0  0  0  0  0  0
   -2.7625   -1.9617    0.0000 C   0  0  0  0  0  0  0  0  0  0  0  0
   -1.4289   -2.4750    0.0000 N   0  0  0  0  0  0  0  0  0  0  0  0
   -0.9103   -3.1166    0.0000 C   0  0  0  0  0  0  0  0  0  0  0  0
   -1.2067   -3.8866    0.0000 C   0  0  0  0  0  0  0  0  0  0  0  0
   -0.0954   -2.9883    0.0000 O   0  0  0  0  0  0  0  0  0  0  0  0
   11.6845   -6.1964    0.0000 C   0  0  0  0  0  0  0  0  0  0  0  0
   11.9808   -5.4264    0.0000 O   0  0  0  0  0  0  0  0  0  0  0  0
   12.2031   -6.8380    0.0000 N   0  0  0  0  0  0  0  0  0  0  0  0
   13.0181   -6.7097    0.0000 C   0  0  1  0  0  0  0  0  0  0  0  0
   13.3144   -5.9397    0.0000 C   0  0  0  0  0  0  0  0  0  0  0  0
   12.7958   -5.2981    0.0000 C   0  0  0  0  0  0  0  0  0  0  0  0
   13.0921   -4.5282    0.0000 C   0  0  0  0  0  0  0  0  0  0  0  0
   12.5735   -3.8866    0.0000 C   0  0  0  0  0  0  0  0  0  0  0  0
   12.8699   -3.1166    0.0000 N   0  0  0  0  0  0  0  0  0  0  0  0
   12.3513   -2.4750    0.0000 C   0  0  0  0  0  0  0  0  0  0  0  0
   11.5363   -2.6033    0.0000 C   0  0  0  0  0  0  0  0  0  0  0  0
   12.6476   -1.7051    0.0000 C   0  0  0  0  0  0  0  0  0  0  0  0
   13.5367   -7.3513    0.0000 C   0  0  0  0  0  0  0  0  0  0  0  0
   13.2403   -8.1212    0.0000 O   0  0  0  0  0  0  0  0  0  0  0  0
   14.3516   -7.2229    0.0000 N   0  0  0  0  0  0  0  0  0  0  0  0
   14.7268   -6.4882    0.0000 C   0  0  0  0  0  0  0  0  0  0  0  0
   15.5416   -6.6180    0.0000 C   0  0  0  0  0  0  0  0  0  0  0  0
   15.6699   -7.4330    0.0000 C   0  0  0  0  0  0  0  0  0  0  0  0
   14.9345   -7.8068    0.0000 C   0  0  1  0  0  0  0  0  0  0  0  0
   14.8047   -8.6216    0.0000 C   0  0  0  0  0  0  0  0  0  0  0  0
   14.0342   -8.9165    0.0000 O   0  0  0  0  0  0  0  0  0  0  0  0
   15.4453   -9.1413    0.0000 N   0  0  0  0  0  0  0  0  0  0  0  0
   16.2158   -8.8464    0.0000 C   0  0  2  0  0  0  0  0  0  0  0  0
   16.3456   -8.0316    0.0000 C   0  0  0  0  0  0  0  0  0  0  0  0
   16.8565   -9.3661    0.0000 C   0  0  0  0  0  0  0  0  0  0  0  0
   17.6270   -9.0712    0.0000 N   0  0  0  0  0  0  0  0  0  0  0  0
   16.7267  -10.1809    0.0000 O   0  0  0  0  0  0  0  0  0  0  0  0
  1  2  1  0  0  0  0
  2  3  1  0  0  0  0
  2  4  1  0  0  0  0
  4  5  1  0  0  0  0
  5  6  1  6  0  0  0
  6  7  1  0  0  0  0
  7  8  2  0  0  0  0
  7  9  1  0  0  0  0
  9 10  1  0  0  0  0
 10 11  1  0  0  0  0
 11 12  4  0  0  0  0
 12 13  4  0  0  0  0
 13 14  4  0  0  0  0
 14 15  1  0  0  0  0
 15 16  1  0  0  0  0
 16 17  1  0  0  0  0
 16 18  2  0  0  0  0
 14 19  4  0  0  0  0
 19 20  4  0  0  0  0
 11 20  4  0  0  0  0
  9 21  1  6  0  0  0
 21 22  1  0  0  0  0
 22 23  2  0  0  0  0
 22 24  1  0  0  0  0
 24 25  1  0  0  0  0
 25 26  1  0  0  0  0
 26 27  4  0  0  0  0
 27 28  4  0  0  0  0
 28 29  4  0  0  0  0
 29 30  1  0  0  0  0
 30 31  1  0  0  0  0
 31 32  2  0  0  0  0
 33 31  1  1  0  0  0
 33 34  1  0  0  0  0
 34 35  1  0  0  0  0
 35 36  2  0  0  0  0
 35 37  1  0  0  0  0
 37 38  1  0  0  0  0
 38 39  2  0  0  0  0
 38 40  1  0  0  0  0
 33 40  1  0  0  0  0
 29 41  4  0  0  0  0
 41 42  4  0  0  0  0
 26 42  4  0  0  0  0
 24 43  1  6  0  0  0
 43 44  1  0  0  0  0
 44 45  2  0  0  0  0
 44 46  1  0  0  0  0
 46 47  1  0  0  0  0
 47 48  1  0  0  0  0
 46 49  1  1  0  0  0
 49 50  1  0  0  0  0
 50 51  2  0  0  0  0
 50 52  1  0  0  0  0
 52 53  1  0  0  0  0
 53 54  1  0  0  0  0
 54 55  4  0  0  0  0
 55 56  4  0  0  0  0
 56 57  4  0  0  0  0
 57 58  4  0  0  0  0
 58 59  4  0  0  0  0
 54 59  4  0  0  0  0
 52 60  1  1  0  0  0
 60 61  1  0  0  0  0
 61 62  2  0  0  0  0
 61 63  1  0  0  0  0
 63 64  1  0  0  0  0
 64 65  1  0  0  0  0
 65 66  4  0  0  0  0
 66 67  4  0  0  0  0
 67 68  4  0  0  0  0
 68 69  1  0  0  0  0
 68 70  4  0  0  0  0
 70 71  4  0  0  0  0
 65 71  4  0  0  0  0
 63 72  1  6  0  0  0
 72 73  1  0  0  0  0
 73 74  2  0  0  0  0
 73 75  1  0  0  0  0
 75 76  1  0  0  0  0
 76 77  1  0  0  0  0
 77 78  4  0  0  0  0
 78 79  4  0  0  0  0
 79 80  4  0  0  0  0
 80 81  4  0  0  0  0
 81 82  4  0  0  0  0
 82 83  4  0  0  0  0
 83 84  4  0  0  0  0
 79 84  4  0  0  0  0
 80 85  4  0  0  0  0
 85 86  4  0  0  0  0
 77 86  4  0  0  0  0
 75 87  1  6  0  0  0
 87 88  1  0  0  0  0
 88 89  1  0  0  0  0
 88 90  2  0  0  0  0
  5 91  1  0  0  0  0
 91 92  2  0  0  0  0
 91 93  1  0  0  0  0
 94 93  1  1  0  0  0
 94 95  1  0  0  0  0
 95 96  1  0  0  0  0
 96 97  1  0  0  0  0
 97 98  1  0  0  0  0
 98 99  1  0  0  0  0
 99100  1  0  0  0  0
100101  1  0  0  0  0
100102  1  0  0  0  0
 94103  1  0  0  0  0
103104  2  0  0  0  0
103105  1  0  0  0  0
105106  1  0  0  0  0
106107  1  0  0  0  0
107108  1  0  0  0  0
108109  1  0  0  0  0
105109  1  0  0  0  0
109110  1  1  0  0  0
110111  2  0  0  0  0
110112  1  0  0  0  0
112113  1  0  0  0  0
113114  1  6  0  0  0
113115  1  0  0  0  0
115116  1  0  0  0  0
115117  2  0  0  0  0
M  END
>  <ID>
4379

>  <PREFERRED_NAME>
degarelix

>  <CAS_RN>
214766-78-6

>  <SYNONYMS>
degarelix
firmagon
degarelix acetate

>  <URL>
http://drugcentral.org/drugcard/4379/view

$$$$
