dehydrocholic acid
  -INDIGO-06102310582D

 29 32  0  0  1  0  0  0  0  0999 V2000
    4.9830   -1.5571    0.0000 C   0  0  0  0  0  0  0  0  0  0  0  0
    5.2939   -0.7929    0.0000 C   0  0  2  0  0  0  0  0  0  0  0  0
    6.1111   -0.6800    0.0000 C   0  0  0  0  0  0  0  0  0  0  0  0
    6.6175   -1.3314    0.0000 C   0  0  0  0  0  0  0  0  0  0  0  0
    7.4347   -1.2185    0.0000 C   0  0  0  0  0  0  0  0  0  0  0  0
    7.9411   -1.8698    0.0000 O   0  0  0  0  0  0  0  0  0  0  0  0
    7.7456   -0.4543    0.0000 O   0  0  0  0  0  0  0  0  0  0  0  0
    4.7875   -0.1416    0.0000 C   0  0  1  0  0  0  0  0  0  0  0  0
    5.0168    0.6509    0.0000 C   0  0  0  0  0  0  0  0  0  0  0  0
    4.3340    1.1139    0.0000 C   0  0  0  0  0  0  0  0  0  0  0  0
    3.6826    0.6076    0.0000 C   0  0  1  0  0  0  0  0  0  0  0  0
    2.8705    0.7528    0.0000 C   0  0  1  0  0  0  0  0  0  0  0  0
    2.3387    0.1221    0.0000 C   0  0  2  0  0  0  0  0  0  0  0  0
    2.6190   -0.6539    0.0000 C   0  0  0  0  0  0  0  0  0  0  0  0
    3.4311   -0.7991    0.0000 C   0  0  0  0  0  0  0  0  0  0  0  0
    3.7114   -1.5750    0.0000 O   0  0  0  0  0  0  0  0  0  0  0  0
    3.9629   -0.1684    0.0000 C   0  0  2  0  0  0  0  0  0  0  0  0
    4.3228   -0.9107    0.0000 C   0  0  0  0  0  0  0  0  0  0  0  0
    1.5266    0.2673    0.0000 C   0  0  1  0  0  0  0  0  0  0  0  0
    1.8069   -0.5086    0.0000 C   0  0  0  0  0  0  0  0  0  0  0  0
    0.9948   -0.3634    0.0000 C   0  0  0  0  0  0  0  0  0  0  0  0
    0.1827   -0.2182    0.0000 C   0  0  0  0  0  0  0  0  0  0  0  0
   -0.0976    0.5577    0.0000 C   0  0  0  0  0  0  0  0  0  0  0  0
   -0.9098    0.7029    0.0000 O   0  0  0  0  0  0  0  0  0  0  0  0
    0.4342    1.1884    0.0000 C   0  0  0  0  0  0  0  0  0  0  0  0
    1.2463    1.0432    0.0000 C   0  0  1  0  0  0  0  0  0  0  0  0
    1.7781    1.6739    0.0000 C   0  0  0  0  0  0  0  0  0  0  0  0
    2.5902    1.5287    0.0000 C   0  0  0  0  0  0  0  0  0  0  0  0
    3.1220    2.1594    0.0000 O   0  0  0  0  0  0  0  0  0  0  0  0
  2  1  1  1  0  0  0
  2  3  1  0  0  0  0
  3  4  1  0  0  0  0
  4  5  1  0  0  0  0
  5  6  1  0  0  0  0
  5  7  2  0  0  0  0
  8  2  1  6  0  0  0
  8  9  1  0  0  0  0
  9 10  1  0  0  0  0
 11 10  1  6  0  0  0
 11 12  1  0  0  0  0
 12 13  1  0  0  0  0
 13 14  1  6  0  0  0
 14 15  1  0  0  0  0
 15 16  2  0  0  0  0
 15 17  1  0  0  0  0
  8 17  1  0  0  0  0
 11 17  1  0  0  0  0
 17 18  1  6  0  0  0
 13 19  1  0  0  0  0
 19 20  1  6  0  0  0
 19 21  1  0  0  0  0
 21 22  1  0  0  0  0
 22 23  1  0  0  0  0
 23 24  2  0  0  0  0
 23 25  1  0  0  0  0
 26 25  1  1  0  0  0
 19 26  1  0  0  0  0
 26 27  1  0  0  0  0
 27 28  1  0  0  0  0
 12 28  1  1  0  0  0
 28 29  2  0  0  0  0
M  END
>  <ID>
794

>  <PREFERRED_NAME>
dehydrocholic acid

>  <CAS_RN>
81-23-2

>  <SYNONYMS>
dehydrocholic acid
cholepatin
decholin
dehystolin
ketocholanic acid
oxycholin

>  <URL>
http://drugcentral.org/drugcard/794/view

$$$$
