delgocitinib
  -INDIGO-06102311212D

 23 26  0  0  1  0  0  0  0  0999 V2000
    1.3841    2.9762    0.0000 C   0  0  0  0  0  0  0  0  0  0  0  0
    2.0516    3.4611    0.0000 C   0  0  1  0  0  0  0  0  0  0  0  0
    2.1806    4.2759    0.0000 C   0  0  0  0  0  0  0  0  0  0  0  0
    2.9955    4.1469    0.0000 N   0  0  0  0  0  0  0  0  0  0  0  0
    2.8664    3.3320    0.0000 C   0  0  2  0  0  0  0  0  0  0  0  0
    3.6914    3.3320    0.0000 C   0  0  0  0  0  0  0  0  0  0  0  0
    3.9464    2.5474    0.0000 C   0  0  0  0  0  0  0  0  0  0  0  0
    3.2789    2.0625    0.0000 N   0  0  0  0  0  0  0  0  0  0  0  0
    2.6115    2.5474    0.0000 C   0  0  0  0  0  0  0  0  0  0  0  0
    3.2789    1.2375    0.0000 C   0  0  0  0  0  0  0  0  0  0  0  0
    3.9934    0.8250    0.0000 N   0  0  0  0  0  0  0  0  0  0  0  0
    3.9934    0.0000    0.0000 C   0  0  0  0  0  0  0  0  0  0  0  0
    3.2789   -0.4125    0.0000 N   0  0  0  0  0  0  0  0  0  0  0  0
    2.5645    0.0000    0.0000 C   0  0  0  0  0  0  0  0  0  0  0  0
    2.5645    0.8250    0.0000 C   0  0  0  0  0  0  0  0  0  0  0  0
    1.7798    1.0799    0.0000 C   0  0  0  0  0  0  0  0  0  0  0  0
    1.2949    0.4125    0.0000 C   0  0  0  0  0  0  0  0  0  0  0  0
    1.7798   -0.2549    0.0000 N   0  0  0  0  0  0  0  0  0  0  0  0
    3.6629    4.6318    0.0000 C   0  0  0  0  0  0  0  0  0  0  0  0
    3.5767    5.4523    0.0000 O   0  0  0  0  0  0  0  0  0  0  0  0
    4.4166    4.2963    0.0000 C   0  0  0  0  0  0  0  0  0  0  0  0
    5.0840    4.7812    0.0000 C   0  0  0  0  0  0  0  0  0  0  0  0
    5.7515    5.2661    0.0000 N   0  0  0  0  0  0  0  0  0  0  0  0
  2  1  1  1  0  0  0
  2  3  1  0  0  0  0
  3  4  1  0  0  0  0
  5  4  1  1  0  0  0
  2  5  1  0  0  0  0
  5  6  1  0  0  0  0
  6  7  1  0  0  0  0
  7  8  1  0  0  0  0
  8  9  1  0  0  0  0
  5  9  1  0  0  0  0
  8 10  1  0  0  0  0
 10 11  4  0  0  0  0
 11 12  4  0  0  0  0
 12 13  4  0  0  0  0
 13 14  4  0  0  0  0
 14 15  4  0  0  0  0
 10 15  4  0  0  0  0
 15 16  4  0  0  0  0
 16 17  4  0  0  0  0
 17 18  4  0  0  0  0
 14 18  4  0  0  0  0
  4 19  1  0  0  0  0
 19 20  2  0  0  0  0
 19 21  1  0  0  0  0
 21 22  1  0  0  0  0
 22 23  3  0  0  0  0
M  STY  1   1 DAT
M  SLB  1   1   1
M  SAL   1  1  18
M  SDT   1 MRV_IMPLICIT_H
M  SDD   1     0.0000    0.0000    DA    ALL  1       1
M  SED   1 IMPL_H1
M  END
>  <ID>
5426

>  <PREFERRED_NAME>
delgocitinib

>  <CAS_RN>
1263774-59-9

>  <SYNONYMS>
delgocitinib
JTE-052
JTE-052A
LEO 124249
LEO 124249A
LP0133
corectim

>  <URL>
http://drugcentral.org/drugcard/5426/view

$$$$
