deslanoside
  -INDIGO-06102310582D

 66 74  0  0  1  0  0  0  0  0999 V2000
    9.4481    2.5452    0.0000 C   0  0  0  0  0  0  0  0  0  0  0  0
    8.6360    2.4000    0.0000 C   0  0  1  0  0  0  0  0  0  0  0  0
    8.3557    1.6241    0.0000 O   0  0  0  0  0  0  0  0  0  0  0  0
    7.5435    1.4789    0.0000 C   0  0  2  0  0  0  0  0  0  0  0  0
    7.0117    2.1096    0.0000 C   0  0  0  0  0  0  0  0  0  0  0  0
    7.2920    2.8855    0.0000 C   0  0  2  0  0  0  0  0  0  0  0  0
    6.7602    3.5162    0.0000 O   0  0  0  0  0  0  0  0  0  0  0  0
    8.1041    3.0307    0.0000 C   0  0  2  0  0  0  0  0  0  0  0  0
    8.3844    3.8066    0.0000 O   0  0  0  0  0  0  0  0  0  0  0  0
    7.8526    4.4373    0.0000 C   0  0  1  0  0  0  0  0  0  0  0  0
    7.0405    4.2921    0.0000 C   0  0  0  0  0  0  0  0  0  0  0  0
    6.5087    4.9228    0.0000 C   0  0  2  0  0  0  0  0  0  0  0  0
    5.6966    4.7776    0.0000 O   0  0  0  0  0  0  0  0  0  0  0  0
    6.7890    5.6987    0.0000 C   0  0  2  0  0  0  0  0  0  0  0  0
    6.2572    6.3295    0.0000 O   0  0  0  0  0  0  0  0  0  0  0  0
    6.5375    7.1054    0.0000 C   0  0  1  0  0  0  0  0  0  0  0  0
    6.0056    7.7361    0.0000 C   0  0  0  0  0  0  0  0  0  0  0  0
    6.2859    8.5120    0.0000 C   0  0  2  0  0  0  0  0  0  0  0  0
    5.7541    9.1427    0.0000 O   0  0  0  0  0  0  0  0  0  0  0  0
    7.0981    8.6572    0.0000 C   0  0  2  0  0  0  0  0  0  0  0  0
    7.3784    9.4332    0.0000 O   0  0  0  0  0  0  0  0  0  0  0  0
    8.1905    9.5784    0.0000 C   0  0  2  0  0  0  0  0  0  0  0  0
    8.7223    8.9477    0.0000 O   0  0  0  0  0  0  0  0  0  0  0  0
    9.5344    9.0929    0.0000 C   0  0  2  0  0  0  0  0  0  0  0  0
   10.0662    8.4622    0.0000 C   0  0  0  0  0  0  0  0  0  0  0  0
   10.8784    8.6074    0.0000 O   0  0  0  0  0  0  0  0  0  0  0  0
    9.8147    9.8688    0.0000 C   0  0  1  0  0  0  0  0  0  0  0  0
   10.6268   10.0140    0.0000 O   0  0  0  0  0  0  0  0  0  0  0  0
    9.2829   10.4995    0.0000 C   0  0  2  0  0  0  0  0  0  0  0  0
    9.5632   11.2754    0.0000 O   0  0  0  0  0  0  0  0  0  0  0  0
    8.4708   10.3543    0.0000 C   0  0  1  0  0  0  0  0  0  0  0  0
    7.9390   10.9850    0.0000 O   0  0  0  0  0  0  0  0  0  0  0  0
    7.6299    8.0265    0.0000 C   0  0  1  0  0  0  0  0  0  0  0  0
    8.4420    8.1717    0.0000 C   0  0  0  0  0  0  0  0  0  0  0  0
    7.3496    7.2506    0.0000 O   0  0  0  0  0  0  0  0  0  0  0  0
    7.6011    5.8440    0.0000 C   0  0  1  0  0  0  0  0  0  0  0  0
    7.8814    6.6199    0.0000 C   0  0  0  0  0  0  0  0  0  0  0  0
    8.1329    5.2133    0.0000 O   0  0  0  0  0  0  0  0  0  0  0  0
    7.2632    0.7029    0.0000 O   0  0  0  0  0  0  0  0  0  0  0  0
    6.4511    0.5577    0.0000 C   0  0  1  0  0  0  0  0  0  0  0  0
    6.1708   -0.2182    0.0000 C   0  0  0  0  0  0  0  0  0  0  0  0
    5.3587   -0.3634    0.0000 C   0  0  0  0  0  0  0  0  0  0  0  0
    4.8269    0.2673    0.0000 C   0  0  1  0  0  0  0  0  0  0  0  0
    4.5466   -0.5086    0.0000 C   0  0  0  0  0  0  0  0  0  0  0  0
    5.1072    1.0432    0.0000 C   0  0  2  0  0  0  0  0  0  0  0  0
    4.5754    1.6739    0.0000 C   0  0  0  0  0  0  0  0  0  0  0  0
    3.7633    1.5287    0.0000 C   0  0  0  0  0  0  0  0  0  0  0  0
    3.4830    0.7528    0.0000 C   0  0  2  0  0  0  0  0  0  0  0  0
    4.0148    0.1221    0.0000 C   0  0  2  0  0  0  0  0  0  0  0  0
    3.7345   -0.6539    0.0000 C   0  0  0  0  0  0  0  0  0  0  0  0
    2.9224   -0.7991    0.0000 C   0  0  1  0  0  0  0  0  0  0  0  0
    2.6421   -1.5750    0.0000 O   0  0  0  0  0  0  0  0  0  0  0  0
    2.3905   -0.1684    0.0000 C   0  0  2  0  0  0  0  0  0  0  0  0
    2.0307   -0.9107    0.0000 C   0  0  0  0  0  0  0  0  0  0  0  0
    1.5660   -0.1416    0.0000 C   0  0  2  0  0  0  0  0  0  0  0  0
    1.3367    0.6509    0.0000 C   0  0  0  0  0  0  0  0  0  0  0  0
    2.0195    1.1139    0.0000 C   0  0  0  0  0  0  0  0  0  0  0  0
    2.6708    0.6076    0.0000 C   0  0  2  0  0  0  0  0  0  0  0  0
    2.8685    1.4085    0.0000 O   0  0  0  0  0  0  0  0  0  0  0  0
    1.0596   -0.7929    0.0000 C   0  0  0  0  0  0  0  0  0  0  0  0
    1.2889   -1.5854    0.0000 C   0  0  0  0  0  0  0  0  0  0  0  0
    0.6061   -2.0484    0.0000 C   0  0  0  0  0  0  0  0  0  0  0  0
    0.5793   -2.8729    0.0000 O   0  0  0  0  0  0  0  0  0  0  0  0
   -0.0452   -1.5420    0.0000 O   0  0  0  0  0  0  0  0  0  0  0  0
    0.2351   -0.7661    0.0000 C   0  0  0  0  0  0  0  0  0  0  0  0
    5.9193    1.1884    0.0000 C   0  0  0  0  0  0  0  0  0  0  0  0
  2  1  1  1  0  0  0
  2  3  1  0  0  0  0
  3  4  1  0  0  0  0
  4  5  1  0  0  0  0
  5  6  1  0  0  0  0
  6  7  1  6  0  0  0
  6  8  1  0  0  0  0
  2  8  1  0  0  0  0
  8  9  1  6  0  0  0
 10  9  1  1  0  0  0
 10 11  1  0  0  0  0
 11 12  1  0  0  0  0
 12 13  1  6  0  0  0
 12 14  1  0  0  0  0
 14 15  1  6  0  0  0
 16 15  1  1  0  0  0
 16 17  1  0  0  0  0
 17 18  1  0  0  0  0
 18 19  1  6  0  0  0
 18 20  1  0  0  0  0
 20 21  1  6  0  0  0
 22 21  1  1  0  0  0
 22 23  1  0  0  0  0
 23 24  1  0  0  0  0
 24 25  1  1  0  0  0
 25 26  1  0  0  0  0
 24 27  1  0  0  0  0
 27 28  1  6  0  0  0
 27 29  1  0  0  0  0
 29 30  1  1  0  0  0
 29 31  1  0  0  0  0
 22 31  1  0  0  0  0
 31 32  1  6  0  0  0
 20 33  1  0  0  0  0
 33 34  1  1  0  0  0
 33 35  1  0  0  0  0
 16 35  1  0  0  0  0
 14 36  1  0  0  0  0
 36 37  1  1  0  0  0
 36 38  1  0  0  0  0
 10 38  1  0  0  0  0
  4 39  1  1  0  0  0
 40 39  1  1  0  0  0
 40 41  1  0  0  0  0
 41 42  1  0  0  0  0
 42 43  1  0  0  0  0
 43 44  1  1  0  0  0
 43 45  1  0  0  0  0
 45 46  1  6  0  0  0
 46 47  1  0  0  0  0
 48 47  1  6  0  0  0
 48 49  1  0  0  0  0
 43 49  1  0  0  0  0
 49 50  1  1  0  0  0
 50 51  1  0  0  0  0
 51 52  1  1  0  0  0
 51 53  1  0  0  0  0
 53 54  1  1  0  0  0
 53 55  1  0  0  0  0
 55 56  1  0  0  0  0
 56 57  1  0  0  0  0
 57 58  1  0  0  0  0
 48 58  1  0  0  0  0
 53 58  1  0  0  0  0
 58 59  1  1  0  0  0
 55 60  1  1  0  0  0
 60 61  2  0  0  0  0
 61 62  1  0  0  0  0
 62 63  2  0  0  0  0
 62 64  1  0  0  0  0
 64 65  1  0  0  0  0
 60 65  1  0  0  0  0
 45 66  1  0  0  0  0
 40 66  1  0  0  0  0
M  END
>  <ID>
813

>  <PREFERRED_NAME>
deslanoside

>  <CAS_RN>
17598-65-1

>  <SYNONYMS>
deslanoside
Cedilanid D
Deacetylanatoside C
Deacetyllanatoside C
desace
Desacetyllanatoside C
Deslanatoside C
Deslanoside C
Purpurea glycoside C

>  <URL>
http://drugcentral.org/drugcard/813/view

$$$$
