desmopressin
  -INDIGO-06102310582D

 74 77  0  0  1  0  0  0  0  0999 V2000
   13.7094  -10.4385    0.0000 N   0  0  0  0  0  0  0  0  0  0  0  0
   12.9024  -10.2670    0.0000 C   0  0  0  0  0  0  0  0  0  0  0  0
   12.6475   -9.4824    0.0000 O   0  0  0  0  0  0  0  0  0  0  0  0
   12.3504  -10.8801    0.0000 C   0  0  0  0  0  0  0  0  0  0  0  0
   11.5434  -10.7086    0.0000 C   0  0  0  0  0  0  0  0  0  0  0  0
   10.9914  -11.3217    0.0000 C   0  0  2  0  0  0  0  0  0  0  0  0
   11.7984  -11.4932    0.0000 N   0  0  0  0  0  0  0  0  0  0  0  0
   12.0533  -12.2778    0.0000 C   0  0  0  0  0  0  0  0  0  0  0  0
   12.8603  -12.4493    0.0000 O   0  0  0  0  0  0  0  0  0  0  0  0
   11.5013  -12.8909    0.0000 C   0  0  2  0  0  0  0  0  0  0  0  0
   11.7562  -13.6755    0.0000 C   0  0  0  0  0  0  0  0  0  0  0  0
   12.5632  -13.8470    0.0000 C   0  0  0  0  0  0  0  0  0  0  0  0
   13.1152  -13.2339    0.0000 C   0  0  0  0  0  0  0  0  0  0  0  0
   13.9222  -13.4055    0.0000 C   0  0  0  0  0  0  0  0  0  0  0  0
   14.1771  -14.1901    0.0000 C   0  0  0  0  0  0  0  0  0  0  0  0
   13.6251  -14.8032    0.0000 C   0  0  0  0  0  0  0  0  0  0  0  0
   12.8181  -14.6317    0.0000 C   0  0  0  0  0  0  0  0  0  0  0  0
   10.6943  -12.7194    0.0000 N   0  0  0  0  0  0  0  0  0  0  0  0
   10.1423  -13.3325    0.0000 C   0  0  0  0  0  0  0  0  0  0  0  0
   10.3972  -14.1171    0.0000 O   0  0  0  0  0  0  0  0  0  0  0  0
    9.3353  -13.1609    0.0000 C   0  0  2  0  0  0  0  0  0  0  0  0
    9.5902  -13.9456    0.0000 C   0  0  0  0  0  0  0  0  0  0  0  0
    9.0382  -14.5586    0.0000 C   0  0  0  0  0  0  0  0  0  0  0  0
    9.2932  -15.3433    0.0000 C   0  0  0  0  0  0  0  0  0  0  0  0
    8.7411  -15.9564    0.0000 C   0  0  0  0  0  0  0  0  0  0  0  0
    7.9342  -15.7848    0.0000 C   0  0  0  0  0  0  0  0  0  0  0  0
    7.3821  -16.3979    0.0000 O   0  0  0  0  0  0  0  0  0  0  0  0
    7.6792  -15.0002    0.0000 C   0  0  0  0  0  0  0  0  0  0  0  0
    8.2312  -14.3871    0.0000 C   0  0  0  0  0  0  0  0  0  0  0  0
    8.7833  -13.7740    0.0000 N   0  0  0  0  0  0  0  0  0  0  0  0
    7.9763  -13.6025    0.0000 C   0  0  0  0  0  0  0  0  0  0  0  0
    7.7214  -12.8179    0.0000 O   0  0  0  0  0  0  0  0  0  0  0  0
    7.4243  -14.2156    0.0000 C   0  0  0  0  0  0  0  0  0  0  0  0
    6.6173  -14.0441    0.0000 C   0  0  0  0  0  0  0  0  0  0  0  0
    6.3624  -13.2594    0.0000 S   0  0  0  0  0  0  0  0  0  0  0  0
    6.9144  -12.6464    0.0000 S   0  0  0  0  0  0  0  0  0  0  0  0
    6.6595  -11.8617    0.0000 C   0  0  0  0  0  0  0  0  0  0  0  0
    7.2115  -11.2486    0.0000 C   0  0  2  0  0  0  0  0  0  0  0  0
    8.0185  -11.4202    0.0000 N   0  0  0  0  0  0  0  0  0  0  0  0
    8.5705  -10.8071    0.0000 C   0  0  0  0  0  0  0  0  0  0  0  0
    8.3156  -10.0224    0.0000 O   0  0  0  0  0  0  0  0  0  0  0  0
    9.3775  -10.9786    0.0000 C   0  0  2  0  0  0  0  0  0  0  0  0
    9.1225  -10.1940    0.0000 C   0  0  0  0  0  0  0  0  0  0  0  0
    9.6746   -9.5809    0.0000 C   0  0  0  0  0  0  0  0  0  0  0  0
   10.4815   -9.7524    0.0000 N   0  0  0  0  0  0  0  0  0  0  0  0
    9.4196   -8.7963    0.0000 O   0  0  0  0  0  0  0  0  0  0  0  0
    9.9295  -10.3655    0.0000 N   0  0  0  0  0  0  0  0  0  0  0  0
   10.7365  -10.5370    0.0000 C   0  0  0  0  0  0  0  0  0  0  0  0
   11.2885   -9.9239    0.0000 O   0  0  0  0  0  0  0  0  0  0  0  0
    6.9565  -10.4640    0.0000 C   0  0  0  0  0  0  0  0  0  0  0  0
    7.5086   -9.8509    0.0000 O   0  0  0  0  0  0  0  0  0  0  0  0
    6.1496  -10.2925    0.0000 N   0  0  0  0  0  0  0  0  0  0  0  0
    5.5365  -10.8445    0.0000 C   0  0  0  0  0  0  0  0  0  0  0  0
    4.8220  -10.4320    0.0000 C   0  0  0  0  0  0  0  0  0  0  0  0
    4.9935   -9.6250    0.0000 C   0  0  0  0  0  0  0  0  0  0  0  0
    5.8140   -9.5388    0.0000 C   0  0  1  0  0  0  0  0  0  0  0  0
    6.2265   -8.8243    0.0000 C   0  0  0  0  0  0  0  0  0  0  0  0
    5.8140   -8.1099    0.0000 O   0  0  0  0  0  0  0  0  0  0  0  0
    7.0515   -8.8243    0.0000 N   0  0  0  0  0  0  0  0  0  0  0  0
    7.4640   -8.1099    0.0000 C   0  0  2  0  0  0  0  0  0  0  0  0
    7.0515   -7.3954    0.0000 C   0  0  0  0  0  0  0  0  0  0  0  0
    6.2265   -7.3954    0.0000 C   0  0  0  0  0  0  0  0  0  0  0  0
    5.8140   -6.6809    0.0000 C   0  0  0  0  0  0  0  0  0  0  0  0
    4.9890   -6.6809    0.0000 N   0  0  0  0  0  0  0  0  0  0  0  0
    4.5765   -5.9665    0.0000 C   0  0  0  0  0  0  0  0  0  0  0  0
    3.7515   -5.9665    0.0000 N   0  0  0  0  0  0  0  0  0  0  0  0
    4.9890   -5.2520    0.0000 N   0  0  0  0  0  0  0  0  0  0  0  0
    8.2890   -8.1099    0.0000 C   0  0  0  0  0  0  0  0  0  0  0  0
    8.7015   -8.8243    0.0000 O   0  0  0  0  0  0  0  0  0  0  0  0
    8.7015   -7.3954    0.0000 N   0  0  0  0  0  0  0  0  0  0  0  0
    9.5265   -7.3954    0.0000 C   0  0  0  0  0  0  0  0  0  0  0  0
    9.9390   -6.6809    0.0000 C   0  0  0  0  0  0  0  0  0  0  0  0
    9.5265   -5.9665    0.0000 N   0  0  0  0  0  0  0  0  0  0  0  0
   10.7640   -6.6809    0.0000 O   0  0  0  0  0  0  0  0  0  0  0  0
  1  2  1  0  0  0  0
  2  3  2  0  0  0  0
  2  4  1  0  0  0  0
  4  5  1  0  0  0  0
  6  5  1  1  0  0  0
  6  7  1  0  0  0  0
  7  8  1  0  0  0  0
  8  9  2  0  0  0  0
  8 10  1  0  0  0  0
 10 11  1  6  0  0  0
 11 12  1  0  0  0  0
 12 13  4  0  0  0  0
 13 14  4  0  0  0  0
 14 15  4  0  0  0  0
 15 16  4  0  0  0  0
 16 17  4  0  0  0  0
 12 17  4  0  0  0  0
 10 18  1  0  0  0  0
 18 19  1  0  0  0  0
 19 20  2  0  0  0  0
 19 21  1  0  0  0  0
 21 22  1  1  0  0  0
 22 23  1  0  0  0  0
 23 24  4  0  0  0  0
 24 25  4  0  0  0  0
 25 26  4  0  0  0  0
 26 27  1  0  0  0  0
 26 28  4  0  0  0  0
 28 29  4  0  0  0  0
 23 29  4  0  0  0  0
 21 30  1  0  0  0  0
 30 31  1  0  0  0  0
 31 32  2  0  0  0  0
 31 33  1  0  0  0  0
 33 34  1  0  0  0  0
 34 35  1  0  0  0  0
 35 36  1  0  0  0  0
 36 37  1  0  0  0  0
 37 38  1  0  0  0  0
 38 39  1  0  0  0  0
 39 40  1  0  0  0  0
 40 41  2  0  0  0  0
 40 42  1  0  0  0  0
 42 43  1  1  0  0  0
 43 44  1  0  0  0  0
 44 45  1  0  0  0  0
 44 46  2  0  0  0  0
 42 47  1  0  0  0  0
 47 48  1  0  0  0  0
  6 48  1  0  0  0  0
 48 49  2  0  0  0  0
 38 50  1  1  0  0  0
 50 51  2  0  0  0  0
 50 52  1  0  0  0  0
 52 53  1  0  0  0  0
 53 54  1  0  0  0  0
 54 55  1  0  0  0  0
 55 56  1  0  0  0  0
 52 56  1  0  0  0  0
 56 57  1  1  0  0  0
 57 58  2  0  0  0  0
 57 59  1  0  0  0  0
 60 59  1  6  0  0  0
 60 61  1  0  0  0  0
 61 62  1  0  0  0  0
 62 63  1  0  0  0  0
 63 64  1  0  0  0  0
 64 65  1  0  0  0  0
 65 66  1  0  0  0  0
 65 67  2  0  0  0  0
 60 68  1  0  0  0  0
 68 69  2  0  0  0  0
 68 70  1  0  0  0  0
 70 71  1  0  0  0  0
 71 72  1  0  0  0  0
 72 73  1  0  0  0  0
 72 74  2  0  0  0  0
M  END
>  <ID>
817

>  <PREFERRED_NAME>
desmopressin

>  <CAS_RN>
16679-58-6

>  <SYNONYMS>
desmopressin
desmopressin acetate hydrate
minirinmelt
adiuretin
minirin
desmopressin acetate
DDAVP

>  <URL>
http://drugcentral.org/drugcard/817/view

$$$$
