desomorphine
  -INDIGO-06102311092D

 20 24  0  0  1  0  0  0  0  0999 V2000
   -1.4631    1.4455    0.0000 C   0  0  0  0  0  0  0  0  0  0  0  0
   -0.8914    0.8507    0.0000 N   0  0  0  0  0  0  0  0  0  0  0  0
   -1.1390    0.0152    0.0000 C   0  0  0  0  0  0  0  0  0  0  0  0
   -0.3479   -0.5148    0.0000 C   0  0  0  0  0  0  0  0  0  0  0  0
    0.5187   -0.3008    0.0000 C   0  0  2  0  0  0  0  0  0  0  0  0
    0.4755   -1.1356    0.0000 C   0  0  2  0  0  0  0  0  0  0  0  0
   -0.3657   -1.3516    0.0000 C   0  0  0  0  0  0  0  0  0  0  0  0
   -0.9701   -0.7461    0.0000 C   0  0  0  0  0  0  0  0  0  0  0  0
   -0.5959    0.0960    0.0000 C   0  0  0  0  0  0  0  0  0  0  0  0
    0.1933    0.3094    0.0000 C   0  0  1  0  0  0  0  0  0  0  0  0
   -0.0485    1.0646    0.0000 C   0  0  1  0  0  0  0  0  0  0  0  0
    0.7423    1.3667    0.0000 C   0  0  0  0  0  0  0  0  0  0  0  0
    1.4381    0.8554    0.0000 C   0  0  0  0  0  0  0  0  0  0  0  0
    2.2477    1.0504    0.0000 C   0  0  0  0  0  0  0  0  0  0  0  0
    2.8356    0.4630    0.0000 C   0  0  0  0  0  0  0  0  0  0  0  0
    2.6053   -0.3447    0.0000 C   0  0  0  0  0  0  0  0  0  0  0  0
    3.2023   -0.9142    0.0000 O   0  0  0  0  0  0  0  0  0  0  0  0
    1.8024   -0.6152    0.0000 C   0  0  0  0  0  0  0  0  0  0  0  0
    1.3034   -1.3205    0.0000 O   0  0  0  0  0  0  0  0  0  0  0  0
    1.2773    0.0154    0.0000 C   0  0  0  0  0  0  0  0  0  0  0  0
  1  2  1  0  0  0  0
  2  3  1  0  0  0  0
  3  4  1  0  0  0  0
  4  5  1  0  0  0  0
  5  6  1  0  0  0  0
  6  7  1  0  0  0  0
  7  8  1  0  0  0  0
  8  9  1  0  0  0  0
 10  9  1  1  0  0  0
  5 10  1  0  0  0  0
 10 11  1  0  0  0  0
 11  2  1  6  0  0  0
 11 12  1  0  0  0  0
 12 13  1  0  0  0  0
 13 14  4  0  0  0  0
 14 15  4  0  0  0  0
 15 16  4  0  0  0  0
 16 17  1  0  0  0  0
 16 18  4  0  0  0  0
 18 19  1  0  0  0  0
  6 19  1  1  0  0  0
 18 20  4  0  0  0  0
  5 20  1  6  0  0  0
 13 20  4  0  0  0  0
M  END
>  <ID>
3134

>  <PREFERRED_NAME>
desomorphine

>  <CAS_RN>
427-00-9

>  <SYNONYMS>
desomorphine
Deoxydihydromorphine D
dihydrodeoxymorphine
Dihydrodesoxymorphine D
dihydroepoxymorphine
Morphine D

>  <URL>
http://drugcentral.org/drugcard/3134/view

$$$$
