desoxymycin
  -INDIGO-06102311092D

 39 41  0  0  1  0  0  0  0  0999 V2000
    1.3222    0.7634    0.0000 C   0  0  0  0  0  0  0  0  0  0  0  0
    2.0367    1.1759    0.0000 N   0  0  0  0  0  0  0  0  0  0  0  0
    2.7512    0.7634    0.0000 C   0  0  1  0  0  0  0  0  0  0  0  0
    3.4656    1.1759    0.0000 C   0  0  2  0  0  0  0  0  0  0  0  0
    3.4656    2.0009    0.0000 O   0  0  0  0  0  0  0  0  0  0  0  0
    4.1801    0.7634    0.0000 C   0  0  1  0  0  0  0  0  0  0  0  0
    4.8946    1.1759    0.0000 O   0  0  0  0  0  0  0  0  0  0  0  0
    4.1801   -0.0616    0.0000 C   0  0  2  0  0  0  0  0  0  0  0  0
    4.8946   -0.4741    0.0000 C   0  0  0  0  0  0  0  0  0  0  0  0
    5.6091   -0.0616    0.0000 O   0  0  0  0  0  0  0  0  0  0  0  0
    3.4656   -0.4741    0.0000 O   0  0  0  0  0  0  0  0  0  0  0  0
    2.7512   -0.0616    0.0000 C   0  0  1  0  0  0  0  0  0  0  0  0
    2.0367   -0.4741    0.0000 O   0  0  0  0  0  0  0  0  0  0  0  0
    2.0367   -1.2991    0.0000 C   0  0  1  0  0  0  0  0  0  0  0  0
    2.7041   -1.7840    0.0000 C   0  0  2  0  0  0  0  0  0  0  0  0
    3.4888   -1.5291    0.0000 O   0  0  0  0  0  0  0  0  0  0  0  0
    4.1019   -2.0811    0.0000 C   0  0  1  0  0  0  0  0  0  0  0  0
    4.8865   -1.8262    0.0000 C   0  0  2  0  0  0  0  0  0  0  0  0
    5.0580   -1.0192    0.0000 O   0  0  0  0  0  0  0  0  0  0  0  0
    5.4996   -2.3782    0.0000 C   0  0  1  0  0  0  0  0  0  0  0  0
    6.2842   -2.1233    0.0000 O   0  0  0  0  0  0  0  0  0  0  0  0
    5.3281   -3.1852    0.0000 C   0  0  2  0  0  0  0  0  0  0  0  0
    5.9411   -3.7372    0.0000 N   0  0  0  0  0  0  0  0  0  0  0  0
    5.7696   -4.5442    0.0000 C   0  0  0  0  0  0  0  0  0  0  0  0
    6.3827   -5.0962    0.0000 N   0  0  0  0  0  0  0  0  0  0  0  0
    4.9850   -4.7991    0.0000 N   0  0  0  0  0  0  0  0  0  0  0  0
    4.5434   -3.4401    0.0000 C   0  0  1  0  0  0  0  0  0  0  0  0
    4.3719   -4.2471    0.0000 O   0  0  0  0  0  0  0  0  0  0  0  0
    3.9303   -2.8881    0.0000 C   0  0  2  0  0  0  0  0  0  0  0  0
    3.1457   -3.1430    0.0000 N   0  0  0  0  0  0  0  0  0  0  0  0
    2.9742   -3.9500    0.0000 C   0  0  0  0  0  0  0  0  0  0  0  0
    3.5873   -4.5020    0.0000 N   0  0  0  0  0  0  0  0  0  0  0  0
    2.1896   -4.2049    0.0000 N   0  0  0  0  0  0  0  0  0  0  0  0
    2.4492   -2.5687    0.0000 O   0  0  0  0  0  0  0  0  0  0  0  0
    1.6242   -2.5687    0.0000 C   0  0  1  0  0  0  0  0  0  0  0  0
    1.1393   -3.2361    0.0000 C   0  0  0  0  0  0  0  0  0  0  0  0
    1.3693   -1.7840    0.0000 C   0  0  2  0  0  0  0  0  0  0  0  0
    0.5846   -1.5291    0.0000 C   0  0  0  0  0  0  0  0  0  0  0  0
   -0.0284   -2.0811    0.0000 O   0  0  0  0  0  0  0  0  0  0  0  0
  1  2  1  0  0  0  0
  3  2  1  1  0  0  0
  3  4  1  0  0  0  0
  4  5  1  6  0  0  0
  4  6  1  0  0  0  0
  6  7  1  1  0  0  0
  6  8  1  0  0  0  0
  8  9  1  6  0  0  0
  9 10  1  0  0  0  0
  8 11  1  0  0  0  0
 11 12  1  0  0  0  0
  3 12  1  0  0  0  0
 12 13  1  1  0  0  0
 14 13  1  1  0  0  0
 14 15  1  0  0  0  0
 15 16  1  6  0  0  0
 17 16  1  1  0  0  0
 17 18  1  0  0  0  0
 18 19  1  6  0  0  0
 18 20  1  0  0  0  0
 20 21  1  1  0  0  0
 20 22  1  0  0  0  0
 22 23  1  6  0  0  0
 23 24  1  0  0  0  0
 24 25  1  0  0  0  0
 24 26  2  0  0  0  0
 22 27  1  0  0  0  0
 27 28  1  1  0  0  0
 27 29  1  0  0  0  0
 17 29  1  0  0  0  0
 29 30  1  6  0  0  0
 30 31  1  0  0  0  0
 31 32  1  0  0  0  0
 31 33  2  0  0  0  0
 15 34  1  0  0  0  0
 34 35  1  0  0  0  0
 35 36  1  1  0  0  0
 35 37  1  0  0  0  0
 14 37  1  0  0  0  0
 37 38  1  6  0  0  0
 38 39  1  0  0  0  0
M  END
>  <ID>
3133

>  <PREFERRED_NAME>
desoxymycin

>  <CAS_RN>
26086-49-7

>  <SYNONYMS>
desoxymycin
deoxydihydrostreptomycin
dihydrodeoxystreptomycin
dihydrodesoxystreptomycin
mervastrept

>  <URL>
http://drugcentral.org/drugcard/3133/view

$$$$
