dexamethasone dipropionate
  -INDIGO-06102310582D

 36 39  0  0  1  0  0  0  0  0999 V2000
    5.6144   -4.2645    0.0000 C   0  0  0  0  0  0  0  0  0  0  0  0
    6.3289   -4.6770    0.0000 C   0  0  0  0  0  0  0  0  0  0  0  0
    7.0433   -4.2645    0.0000 C   0  0  0  0  0  0  0  0  0  0  0  0
    7.0433   -3.4395    0.0000 O   0  0  0  0  0  0  0  0  0  0  0  0
    7.7578   -4.6770    0.0000 O   0  0  0  0  0  0  0  0  0  0  0  0
    8.4723   -4.2645    0.0000 C   0  0  0  0  0  0  0  0  0  0  0  0
    9.1867   -4.6770    0.0000 C   0  0  0  0  0  0  0  0  0  0  0  0
    9.1867   -5.5020    0.0000 O   0  0  0  0  0  0  0  0  0  0  0  0
    9.9012   -4.2645    0.0000 C   0  0  1  0  0  0  0  0  0  0  0  0
   10.2368   -5.0182    0.0000 O   0  0  0  0  0  0  0  0  0  0  0  0
    9.7519   -5.6856    0.0000 C   0  0  0  0  0  0  0  0  0  0  0  0
    8.9449   -5.8572    0.0000 O   0  0  0  0  0  0  0  0  0  0  0  0
   10.0874   -6.4393    0.0000 C   0  0  0  0  0  0  0  0  0  0  0  0
    9.6025   -7.1068    0.0000 C   0  0  0  0  0  0  0  0  0  0  0  0
    9.4163   -3.5971    0.0000 C   0  0  2  0  0  0  0  0  0  0  0  0
    8.5913   -3.5971    0.0000 C   0  0  0  0  0  0  0  0  0  0  0  0
    9.9012   -2.9297    0.0000 C   0  0  0  0  0  0  0  0  0  0  0  0
   10.6858   -3.1846    0.0000 C   0  0  1  0  0  0  0  0  0  0  0  0
   11.4003   -2.7721    0.0000 C   0  0  2  0  0  0  0  0  0  0  0  0
   11.4003   -1.9471    0.0000 C   0  0  0  0  0  0  0  0  0  0  0  0
   12.1148   -1.5346    0.0000 C   0  0  0  0  0  0  0  0  0  0  0  0
   12.8293   -1.9471    0.0000 C   0  0  0  0  0  0  0  0  0  0  0  0
   13.5437   -1.5346    0.0000 C   0  0  0  0  0  0  0  0  0  0  0  0
   14.2582   -1.9471    0.0000 C   0  0  0  0  0  0  0  0  0  0  0  0
   14.9727   -1.5346    0.0000 O   0  0  0  0  0  0  0  0  0  0  0  0
   14.2582   -2.7721    0.0000 C   0  0  0  0  0  0  0  0  0  0  0  0
   13.5437   -3.1846    0.0000 C   0  0  0  0  0  0  0  0  0  0  0  0
   12.8293   -2.7721    0.0000 C   0  0  1  0  0  0  0  0  0  0  0  0
   12.8293   -3.5971    0.0000 C   0  0  0  0  0  0  0  0  0  0  0  0
   12.1148   -3.1846    0.0000 C   0  0  2  0  0  0  0  0  0  0  0  0
   12.4503   -3.9383    0.0000 F   0  0  0  0  0  0  0  0  0  0  0  0
   12.1148   -4.0096    0.0000 C   0  0  1  0  0  0  0  0  0  0  0  0
   12.8293   -4.4221    0.0000 O   0  0  0  0  0  0  0  0  0  0  0  0
   11.4003   -4.4221    0.0000 C   0  0  0  0  0  0  0  0  0  0  0  0
   10.6858   -4.0096    0.0000 C   0  0  2  0  0  0  0  0  0  0  0  0
   10.5996   -4.8301    0.0000 C   0  0  0  0  0  0  0  0  0  0  0  0
  1  2  1  0  0  0  0
  2  3  1  0  0  0  0
  3  4  2  0  0  0  0
  3  5  1  0  0  0  0
  5  6  1  0  0  0  0
  6  7  1  0  0  0  0
  7  8  2  0  0  0  0
  9  7  1  1  0  0  0
  9 10  1  6  0  0  0
 10 11  1  0  0  0  0
 11 12  2  0  0  0  0
 11 13  1  0  0  0  0
 13 14  1  0  0  0  0
  9 15  1  0  0  0  0
 15 16  1  6  0  0  0
 15 17  1  0  0  0  0
 18 17  1  1  0  0  0
 18 19  1  0  0  0  0
 19 20  1  6  0  0  0
 20 21  1  0  0  0  0
 21 22  1  0  0  0  0
 22 23  2  0  0  0  0
 23 24  1  0  0  0  0
 24 25  2  0  0  0  0
 24 26  1  0  0  0  0
 26 27  2  0  0  0  0
 27 28  1  0  0  0  0
 22 28  1  0  0  0  0
 28 29  1  1  0  0  0
 28 30  1  0  0  0  0
 19 30  1  0  0  0  0
 30 31  1  6  0  0  0
 30 32  1  0  0  0  0
 32 33  1  1  0  0  0
 32 34  1  0  0  0  0
 34 35  1  0  0  0  0
  9 35  1  0  0  0  0
 18 35  1  0  0  0  0
 35 36  1  1  0  0  0
M  END
>  <ID>
827

>  <PREFERRED_NAME>
dexamethasone dipropionate

>  <CAS_RN>
55541-30-5

>  <SYNONYMS>
dexamethasone dipropionate
dexamethasone propionate
methaderm

>  <URL>
http://drugcentral.org/drugcard/827/view

$$$$
