diacetyl benzoyl lathyrol
  -INDIGO-06102311132D

 38 41  0  0  1  0  0  0  0  0999 V2000
    7.8103    1.2375    0.0000 C   0  0  0  0  0  0  0  0  0  0  0  0
    6.9853    1.2375    0.0000 C   0  0  1  0  0  0  0  0  0  0  0  0
    6.5004    1.9049    0.0000 C   0  0  0  0  0  0  0  0  0  0  0  0
    5.7158    1.6500    0.0000 C   0  0  1  0  0  0  0  0  0  0  0  0
    5.8020    2.4705    0.0000 O   0  0  0  0  0  0  0  0  0  0  0  0
    6.5557    2.8060    0.0000 C   0  0  0  0  0  0  0  0  0  0  0  0
    6.6419    3.6265    0.0000 C   0  0  0  0  0  0  0  0  0  0  0  0
    7.2231    2.3211    0.0000 O   0  0  0  0  0  0  0  0  0  0  0  0
    5.7158    0.8250    0.0000 C   0  0  2  0  0  0  0  0  0  0  0  0
    6.5004    0.5701    0.0000 C   0  0  1  0  0  0  0  0  0  0  0  0
    6.7553   -0.2146    0.0000 O   0  0  0  0  0  0  0  0  0  0  0  0
    7.5623   -0.3861    0.0000 C   0  0  0  0  0  0  0  0  0  0  0  0
    8.1143    0.2270    0.0000 O   0  0  0  0  0  0  0  0  0  0  0  0
    7.8172   -1.1707    0.0000 C   0  0  0  0  0  0  0  0  0  0  0  0
    8.6242   -1.3422    0.0000 C   0  0  0  0  0  0  0  0  0  0  0  0
    8.8791   -2.1269    0.0000 C   0  0  0  0  0  0  0  0  0  0  0  0
    8.3271   -2.7400    0.0000 C   0  0  0  0  0  0  0  0  0  0  0  0
    7.5201   -2.5684    0.0000 C   0  0  0  0  0  0  0  0  0  0  0  0
    7.2652   -1.7838    0.0000 C   0  0  0  0  0  0  0  0  0  0  0  0
    4.9543    0.3401    0.0000 C   0  0  1  0  0  0  0  0  0  0  0  0
    5.6065   -0.1651    0.0000 O   0  0  0  0  0  0  0  0  0  0  0  0
    5.4952   -0.9825    0.0000 C   0  0  0  0  0  0  0  0  0  0  0  0
    6.1475   -1.4877    0.0000 C   0  0  0  0  0  0  0  0  0  0  0  0
    4.7316   -1.2948    0.0000 O   0  0  0  0  0  0  0  0  0  0  0  0
    4.6993   -0.4445    0.0000 C   0  0  0  0  0  0  0  0  0  0  0  0
    4.4444   -1.2292    0.0000 C   0  0  0  0  0  0  0  0  0  0  0  0
    3.8743   -0.4445    0.0000 C   0  0  0  0  0  0  0  0  0  0  0  0
    3.6194    0.3401    0.0000 C   0  0  0  0  0  0  0  0  0  0  0  0
    2.8579    0.8250    0.0000 C   0  0  1  0  0  0  0  0  0  0  0  0
    2.8579    1.6500    0.0000 C   0  0  1  0  0  0  0  0  0  0  0  0
    3.5724    2.0625    0.0000 C   0  0  0  0  0  0  0  0  0  0  0  0
    4.2868    1.6500    0.0000 C   0  0  0  0  0  0  0  0  0  0  0  0
    4.2868    0.8250    0.0000 C   0  0  0  0  0  0  0  0  0  0  0  0
    5.0013    2.0625    0.0000 C   0  0  0  0  0  0  0  0  0  0  0  0
    5.0013    2.8875    0.0000 O   0  0  0  0  0  0  0  0  0  0  0  0
    2.1434    1.2375    0.0000 C   0  0  0  0  0  0  0  0  0  0  0  0
    1.4676    1.7107    0.0000 C   0  0  0  0  0  0  0  0  0  0  0  0
    1.4676    0.7643    0.0000 C   0  0  0  0  0  0  0  0  0  0  0  0
  2  1  1  6  0  0  0
  2  3  1  0  0  0  0
  3  4  1  0  0  0  0
  4  5  1  6  0  0  0
  5  6  1  0  0  0  0
  6  7  1  0  0  0  0
  6  8  2  0  0  0  0
  9  4  1  6  0  0  0
  9 10  1  0  0  0  0
  2 10  1  0  0  0  0
 10 11  1  6  0  0  0
 11 12  1  0  0  0  0
 12 13  2  0  0  0  0
 12 14  1  0  0  0  0
 14 15  4  0  0  0  0
 15 16  4  0  0  0  0
 16 17  4  0  0  0  0
 17 18  4  0  0  0  0
 18 19  4  0  0  0  0
 14 19  4  0  0  0  0
  9 20  1  0  0  0  0
 20 21  1  6  0  0  0
 21 22  1  0  0  0  0
 22 23  1  0  0  0  0
 22 24  2  0  0  0  0
 20 25  1  0  0  0  0
 25 26  2  0  0  0  0
 25 27  1  0  0  0  0
 27 28  1  0  0  0  0
 29 28  1  6  0  0  0
 29 30  1  0  0  0  0
 30 31  1  6  0  0  0
 31 32  2  0  0  0  0
 32 33  1  0  0  0  0
 32 34  1  0  0  0  0
  4 34  1  0  0  0  0
 34 35  2  0  0  0  0
 30 36  1  0  0  0  0
 29 36  1  0  0  0  0
 36 37  1  0  0  0  0
 36 38  1  0  0  0  0
M  END
>  <ID>
4620

>  <PREFERRED_NAME>
diacetyl benzoyl lathyrol

>  <CAS_RN>
218916-52-0

>  <SYNONYMS>
diacetyl benzoyl lathyrol
Lathyrol-3,15-diacetate 5-benzoate

>  <URL>
http://drugcentral.org/drugcard/4620/view

$$$$
