dicycloverine
  -INDIGO-06102310582D

 22 23  0  0  0  0  0  0  0  0999 V2000
   -4.2125   -2.0717    0.0000 C   0  0  0  0  0  0  0  0  0  0  0  0
   -3.4980   -2.4842    0.0000 C   0  0  0  0  0  0  0  0  0  0  0  0
   -2.7835   -2.0717    0.0000 N   0  0  0  0  0  0  0  0  0  0  0  0
   -2.7835   -1.2467    0.0000 C   0  0  0  0  0  0  0  0  0  0  0  0
   -2.0691   -0.8342    0.0000 C   0  0  0  0  0  0  0  0  0  0  0  0
   -2.0691   -2.4842    0.0000 C   0  0  0  0  0  0  0  0  0  0  0  0
   -1.3546   -2.0717    0.0000 C   0  0  0  0  0  0  0  0  0  0  0  0
   -0.6401   -2.4842    0.0000 O   0  0  0  0  0  0  0  0  0  0  0  0
    0.0744   -2.0717    0.0000 C   0  0  0  0  0  0  0  0  0  0  0  0
    0.0744   -1.2467    0.0000 O   0  0  0  0  0  0  0  0  0  0  0  0
    0.7888   -2.4842    0.0000 C   0  0  0  0  0  0  0  0  0  0  0  0
    1.6013   -2.6275    0.0000 C   0  0  0  0  0  0  0  0  0  0  0  0
    1.8835   -3.4027    0.0000 C   0  0  0  0  0  0  0  0  0  0  0  0
    1.3532   -4.0347    0.0000 C   0  0  0  0  0  0  0  0  0  0  0  0
    0.5407   -3.8914    0.0000 C   0  0  0  0  0  0  0  0  0  0  0  0
    0.2585   -3.1162    0.0000 C   0  0  0  0  0  0  0  0  0  0  0  0
    1.0710   -1.7089    0.0000 C   0  0  0  0  0  0  0  0  0  0  0  0
    0.5407   -1.0770    0.0000 C   0  0  0  0  0  0  0  0  0  0  0  0
    0.8229   -0.3017    0.0000 C   0  0  0  0  0  0  0  0  0  0  0  0
    1.6353   -0.1585    0.0000 C   0  0  0  0  0  0  0  0  0  0  0  0
    2.1656   -0.7904    0.0000 C   0  0  0  0  0  0  0  0  0  0  0  0
    1.8835   -1.5657    0.0000 C   0  0  0  0  0  0  0  0  0  0  0  0
  1  2  1  0  0  0  0
  2  3  1  0  0  0  0
  3  4  1  0  0  0  0
  4  5  1  0  0  0  0
  3  6  1  0  0  0  0
  6  7  1  0  0  0  0
  7  8  1  0  0  0  0
  8  9  1  0  0  0  0
  9 10  2  0  0  0  0
  9 11  1  0  0  0  0
 11 12  1  0  0  0  0
 12 13  1  0  0  0  0
 13 14  1  0  0  0  0
 14 15  1  0  0  0  0
 15 16  1  0  0  0  0
 11 16  1  0  0  0  0
 11 17  1  0  0  0  0
 17 18  1  0  0  0  0
 18 19  1  0  0  0  0
 19 20  1  0  0  0  0
 20 21  1  0  0  0  0
 21 22  1  0  0  0  0
 17 22  1  0  0  0  0
M  END
>  <ID>
868

>  <PREFERRED_NAME>
dicycloverine

>  <CAS_RN>
77-19-0

>  <SYNONYMS>
dicycloverine
dicymine
dicycloverine hydrochloride
dicyclomine
dicycloverin
dicyclomine hydrochloride
dicyclomine HCl

>  <URL>
http://drugcentral.org/drugcard/868/view

$$$$
