dihydroergocristine
  -INDIGO-06102310582D

 45 52  0  0  1  0  0  0  0  0999 V2000
    5.9874    2.6586    0.0000 C   0  0  0  0  0  0  0  0  0  0  0  0
    5.6519    1.9049    0.0000 C   0  0  0  0  0  0  0  0  0  0  0  0
    4.8314    1.8187    0.0000 C   0  0  0  0  0  0  0  0  0  0  0  0
    6.1368    1.2375    0.0000 C   0  0  1  0  0  0  0  0  0  0  0  0
    5.4223    0.8250    0.0000 N   0  0  0  0  0  0  0  0  0  0  0  0
    4.7079    1.2375    0.0000 C   0  0  0  0  0  0  0  0  0  0  0  0
    4.4529    2.0221    0.0000 O   0  0  0  0  0  0  0  0  0  0  0  0
    3.9934    0.8250    0.0000 C   0  0  2  0  0  0  0  0  0  0  0  0
    3.2789    1.2375    0.0000 C   0  0  0  0  0  0  0  0  0  0  0  0
    2.5645    0.8250    0.0000 C   0  0  1  0  0  0  0  0  0  0  0  0
    2.5645    0.0000    0.0000 C   0  0  1  0  0  0  0  0  0  0  0  0
    1.8500   -0.4125    0.0000 C   0  0  0  0  0  0  0  0  0  0  0  0
    1.1355    0.0000    0.0000 C   0  0  0  0  0  0  0  0  0  0  0  0
    0.3509   -0.2549    0.0000 C   0  0  0  0  0  0  0  0  0  0  0  0
   -0.1340    0.4125    0.0000 N   0  0  0  0  0  0  0  0  0  0  0  0
    0.3509    1.0799    0.0000 C   0  0  0  0  0  0  0  0  0  0  0  0
    0.1794    1.8869    0.0000 C   0  0  0  0  0  0  0  0  0  0  0  0
    0.7925    2.4389    0.0000 C   0  0  0  0  0  0  0  0  0  0  0  0
    1.5771    2.1840    0.0000 C   0  0  0  0  0  0  0  0  0  0  0  0
    1.8500    1.2375    0.0000 C   0  0  0  0  0  0  0  0  0  0  0  0
    1.1355    0.8250    0.0000 C   0  0  0  0  0  0  0  0  0  0  0  0
    3.2789   -0.4125    0.0000 N   0  0  0  0  0  0  0  0  0  0  0  0
    3.2789   -1.2375    0.0000 C   0  0  0  0  0  0  0  0  0  0  0  0
    3.9934    0.0000    0.0000 C   0  0  0  0  0  0  0  0  0  0  0  0
    6.7499    1.7895    0.0000 O   0  0  0  0  0  0  0  0  0  0  0  0
    7.4644    1.3770    0.0000 C   0  0  1  0  0  0  0  0  0  0  0  0
    7.5506    2.1975    0.0000 O   0  0  0  0  0  0  0  0  0  0  0  0
    8.2490    1.6320    0.0000 C   0  0  2  0  0  0  0  0  0  0  0  0
    8.5846    2.3856    0.0000 C   0  0  0  0  0  0  0  0  0  0  0  0
    9.4050    2.2994    0.0000 C   0  0  0  0  0  0  0  0  0  0  0  0
    9.5766    1.4924    0.0000 C   0  0  0  0  0  0  0  0  0  0  0  0
    8.8621    1.0799    0.0000 N   0  0  0  0  0  0  0  0  0  0  0  0
    8.6906    0.2730    0.0000 C   0  0  0  0  0  0  0  0  0  0  0  0
    9.3037   -0.2791    0.0000 O   0  0  0  0  0  0  0  0  0  0  0  0
    7.9059    0.0180    0.0000 C   0  0  2  0  0  0  0  0  0  0  0  0
    7.7344   -0.7889    0.0000 C   0  0  0  0  0  0  0  0  0  0  0  0
    8.3475   -1.3410    0.0000 C   0  0  0  0  0  0  0  0  0  0  0  0
    9.1321   -1.0860    0.0000 C   0  0  0  0  0  0  0  0  0  0  0  0
    9.7452   -1.6381    0.0000 C   0  0  0  0  0  0  0  0  0  0  0  0
    9.5737   -2.4450    0.0000 C   0  0  0  0  0  0  0  0  0  0  0  0
    8.7891   -2.7000    0.0000 C   0  0  0  0  0  0  0  0  0  0  0  0
    8.1760   -2.1479    0.0000 C   0  0  0  0  0  0  0  0  0  0  0  0
    7.2929    0.5701    0.0000 N   0  0  0  0  0  0  0  0  0  0  0  0
    6.4724    0.4838    0.0000 C   0  0  0  0  0  0  0  0  0  0  0  0
    6.0599   -0.2306    0.0000 O   0  0  0  0  0  0  0  0  0  0  0  0
  1  2  1  0  0  0  0
  2  3  1  0  0  0  0
  4  2  1  1  0  0  0
  4  5  1  6  0  0  0
  5  6  1  0  0  0  0
  6  7  2  0  0  0  0
  8  6  1  1  0  0  0
  8  9  1  0  0  0  0
 10  9  1  1  0  0  0
 10 11  1  0  0  0  0
 11 12  1  0  0  0  0
 12 13  1  0  0  0  0
 13 14  4  0  0  0  0
 14 15  4  0  0  0  0
 15 16  4  0  0  0  0
 16 17  4  0  0  0  0
 17 18  4  0  0  0  0
 18 19  4  0  0  0  0
 19 20  4  0  0  0  0
 10 20  1  0  0  0  0
 20 21  4  0  0  0  0
 13 21  4  0  0  0  0
 16 21  4  0  0  0  0
 11 22  1  6  0  0  0
 22 23  1  0  0  0  0
 22 24  1  0  0  0  0
  8 24  1  0  0  0  0
  4 25  1  0  0  0  0
 25 26  1  0  0  0  0
 26 27  1  6  0  0  0
 26 28  1  0  0  0  0
 28 29  1  0  0  0  0
 29 30  1  0  0  0  0
 30 31  1  0  0  0  0
 31 32  1  0  0  0  0
 28 32  1  6  0  0  0
 32 33  1  0  0  0  0
 33 34  2  0  0  0  0
 33 35  1  0  0  0  0
 35 36  1  6  0  0  0
 36 37  1  0  0  0  0
 37 38  4  0  0  0  0
 38 39  4  0  0  0  0
 39 40  4  0  0  0  0
 40 41  4  0  0  0  0
 41 42  4  0  0  0  0
 37 42  4  0  0  0  0
 35 43  1  0  0  0  0
 26 43  1  0  0  0  0
 43 44  1  0  0  0  0
  4 44  1  0  0  0  0
 44 45  2  0  0  0  0
M  STY  1   1 DAT
M  SLB  1   1   1
M  SAL   1  1  15
M  SDT   1 MRV_IMPLICIT_H
M  SDD   1     0.0000    0.0000    DA    ALL  1       1
M  SED   1 IMPL_H1
M  END
>  <ID>
887

>  <PREFERRED_NAME>
dihydroergocristine

>  <CAS_RN>
17479-19-5

>  <SYNONYMS>
dihydroergocristine
9,10-dihydroergocristine
dihydroergocristin
dihydroergocristine mesylate
dihydroergocristine mesilate

>  <URL>
http://drugcentral.org/drugcard/887/view

$$$$
