dimethylthiambutene
  -INDIGO-06102311092D

 17 18  0  0  0  0  0  0  0  0999 V2000
    2.5330    1.8198    0.0000 C   0  0  0  0  0  0  0  0  0  0  0  0
    1.8185    1.4073    0.0000 C   0  0  0  0  0  0  0  0  0  0  0  0
    1.8185    0.5823    0.0000 C   0  0  0  0  0  0  0  0  0  0  0  0
    2.5330    0.1698    0.0000 C   0  0  0  0  0  0  0  0  0  0  0  0
    2.5330   -0.6552    0.0000 C   0  0  0  0  0  0  0  0  0  0  0  0
    3.2004   -1.1401    0.0000 C   0  0  0  0  0  0  0  0  0  0  0  0
    2.9455   -1.9248    0.0000 C   0  0  0  0  0  0  0  0  0  0  0  0
    2.1205   -1.9248    0.0000 C   0  0  0  0  0  0  0  0  0  0  0  0
    1.8655   -1.1401    0.0000 S   0  0  0  0  0  0  0  0  0  0  0  0
    3.2475    0.5823    0.0000 C   0  0  0  0  0  0  0  0  0  0  0  0
    3.3337    1.4028    0.0000 C   0  0  0  0  0  0  0  0  0  0  0  0
    4.1407    1.5743    0.0000 C   0  0  0  0  0  0  0  0  0  0  0  0
    4.5532    0.8598    0.0000 C   0  0  0  0  0  0  0  0  0  0  0  0
    4.0011    0.2467    0.0000 S   0  0  0  0  0  0  0  0  0  0  0  0
    1.1040    1.8198    0.0000 N   0  0  0  0  0  0  0  0  0  0  0  0
    0.3896    1.4073    0.0000 C   0  0  0  0  0  0  0  0  0  0  0  0
    1.1040    2.6448    0.0000 C   0  0  0  0  0  0  0  0  0  0  0  0
  1  2  1  0  0  0  0
  2  3  1  0  0  0  0
  3  4  2  0  0  0  0
  4  5  1  0  0  0  0
  5  6  4  0  0  0  0
  6  7  4  0  0  0  0
  7  8  4  0  0  0  0
  8  9  4  0  0  0  0
  5  9  4  0  0  0  0
  4 10  1  0  0  0  0
 10 11  4  0  0  0  0
 11 12  4  0  0  0  0
 12 13  4  0  0  0  0
 13 14  4  0  0  0  0
 10 14  4  0  0  0  0
  2 15  1  0  0  0  0
 15 16  1  0  0  0  0
 15 17  1  0  0  0  0
M  END
>  <ID>
3156

>  <PREFERRED_NAME>
dimethylthiambutene

>  <CAS_RN>
524-84-5

>  <SYNONYMS>
dimethylthiambutene
aminobutene
dimethibutin
dimetiltiambutene

>  <URL>
http://drugcentral.org/drugcard/3156/view

$$$$
