dimethyl sulfoxide
  -INDIGO-06102310582D

  4  3  0  0  0  0  0  0  0  0999 V2000
    1.2375    0.7145    0.0000 C   0  0  0  0  0  0  0  0  0  0  0  0
    0.8250    0.0000    0.0000 S   0  0  0  0  0  0  0  0  0  0  0  0
    1.2375   -0.7145    0.0000 C   0  0  0  0  0  0  0  0  0  0  0  0
    0.0000    0.0000    0.0000 O   0  0  0  0  0  0  0  0  0  0  0  0
  1  2  1  0  0  0  0
  2  3  1  0  0  0  0
  2  4  2  0  0  0  0
M  END
>  <ID>
906

>  <PREFERRED_NAME>
dimethyl sulfoxide

>  <CAS_RN>
67-68-5

>  <SYNONYMS>
dimethyl sulfoxide
DMSO
demavet
demsodrox
methyl sulfoxide
zymso

>  <URL>
http://drugcentral.org/drugcard/906/view

$$$$
