dimorpholamine
  -INDIGO-06102311102D

 28 29  0  0  0  0  0  0  0  0999 V2000
    1.7777   -0.7145    0.0000 C   0  0  0  0  0  0  0  0  0  0  0  0
    2.0477   -1.4941    0.0000 C   0  0  0  0  0  0  0  0  0  0  0  0
    2.8579   -1.6500    0.0000 C   0  0  0  0  0  0  0  0  0  0  0  0
    3.1279   -2.4296    0.0000 C   0  0  0  0  0  0  0  0  0  0  0  0
    3.9381   -2.5855    0.0000 N   0  0  0  0  0  0  0  0  0  0  0  0
    4.4782   -1.9618    0.0000 C   0  0  0  0  0  0  0  0  0  0  0  0
    4.2081   -1.1823    0.0000 C   0  0  0  0  0  0  0  0  0  0  0  0
    4.7482   -0.5586    0.0000 N   0  0  0  0  0  0  0  0  0  0  0  0
    5.5583   -0.7145    0.0000 C   0  0  0  0  0  0  0  0  0  0  0  0
    5.8284   -1.4941    0.0000 C   0  0  0  0  0  0  0  0  0  0  0  0
    6.6385   -1.6500    0.0000 C   0  0  0  0  0  0  0  0  0  0  0  0
    6.9086   -2.4296    0.0000 C   0  0  0  0  0  0  0  0  0  0  0  0
    4.4782    0.2209    0.0000 C   0  0  0  0  0  0  0  0  0  0  0  0
    3.6680    0.3768    0.0000 O   0  0  0  0  0  0  0  0  0  0  0  0
    5.0182    0.8446    0.0000 N   0  0  0  0  0  0  0  0  0  0  0  0
    4.7482    1.6241    0.0000 C   0  0  0  0  0  0  0  0  0  0  0  0
    5.2883    2.2478    0.0000 C   0  0  0  0  0  0  0  0  0  0  0  0
    6.0984    2.0918    0.0000 O   0  0  0  0  0  0  0  0  0  0  0  0
    6.3685    1.3123    0.0000 C   0  0  0  0  0  0  0  0  0  0  0  0
    5.8284    0.6887    0.0000 C   0  0  0  0  0  0  0  0  0  0  0  0
    4.2081   -3.3650    0.0000 C   0  0  0  0  0  0  0  0  0  0  0  0
    5.0182   -3.5209    0.0000 O   0  0  0  0  0  0  0  0  0  0  0  0
    3.6680   -3.9887    0.0000 N   0  0  0  0  0  0  0  0  0  0  0  0
    3.9381   -4.7682    0.0000 C   0  0  0  0  0  0  0  0  0  0  0  0
    3.3980   -5.3918    0.0000 C   0  0  0  0  0  0  0  0  0  0  0  0
    2.5878   -5.2359    0.0000 O   0  0  0  0  0  0  0  0  0  0  0  0
    2.3178   -4.4564    0.0000 C   0  0  0  0  0  0  0  0  0  0  0  0
    2.8579   -3.8327    0.0000 C   0  0  0  0  0  0  0  0  0  0  0  0
  1  2  1  0  0  0  0
  2  3  1  0  0  0  0
  3  4  1  0  0  0  0
  4  5  1  0  0  0  0
  5  6  1  0  0  0  0
  6  7  1  0  0  0  0
  7  8  1  0  0  0  0
  8  9  1  0  0  0  0
  9 10  1  0  0  0  0
 10 11  1  0  0  0  0
 11 12  1  0  0  0  0
  8 13  1  0  0  0  0
 13 14  2  0  0  0  0
 13 15  1  0  0  0  0
 15 16  1  0  0  0  0
 16 17  1  0  0  0  0
 17 18  1  0  0  0  0
 18 19  1  0  0  0  0
 19 20  1  0  0  0  0
 15 20  1  0  0  0  0
  5 21  1  0  0  0  0
 21 22  2  0  0  0  0
 21 23  1  0  0  0  0
 23 24  1  0  0  0  0
 24 25  1  0  0  0  0
 25 26  1  0  0  0  0
 26 27  1  0  0  0  0
 27 28  1  0  0  0  0
 23 28  1  0  0  0  0
M  END
>  <ID>
3732

>  <PREFERRED_NAME>
dimorpholamine

>  <CAS_RN>
119-48-2

>  <SYNONYMS>
dimorpholamine
dimorpholaminum
theraleptique
therapline
theraptique

>  <URL>
http://drugcentral.org/drugcard/3732/view

$$$$
