diphenoxylate
  -INDIGO-06102310582D

 34 37  0  0  0  0  0  0  0  0999 V2000
    0.7485    1.7700    0.0000 C   0  0  0  0  0  0  0  0  0  0  0  0
    0.4663    0.9947    0.0000 C   0  0  0  0  0  0  0  0  0  0  0  0
    0.9966    0.3627    0.0000 O   0  0  0  0  0  0  0  0  0  0  0  0
    0.7145   -0.4125    0.0000 C   0  0  0  0  0  0  0  0  0  0  0  0
   -0.0980   -0.5558    0.0000 O   0  0  0  0  0  0  0  0  0  0  0  0
    1.2448   -1.0445    0.0000 C   0  0  0  0  0  0  0  0  0  0  0  0
    1.9592   -1.4570    0.0000 C   0  0  0  0  0  0  0  0  0  0  0  0
    1.9592   -2.2820    0.0000 C   0  0  0  0  0  0  0  0  0  0  0  0
    1.2448   -2.6945    0.0000 N   0  0  0  0  0  0  0  0  0  0  0  0
    1.2448   -3.5195    0.0000 C   0  0  0  0  0  0  0  0  0  0  0  0
    1.9592   -3.9320    0.0000 C   0  0  0  0  0  0  0  0  0  0  0  0
    1.9592   -4.7570    0.0000 C   0  0  0  0  0  0  0  0  0  0  0  0
    1.1342   -4.7570    0.0000 C   0  0  0  0  0  0  0  0  0  0  0  0
    0.3092   -4.7570    0.0000 N   0  0  0  0  0  0  0  0  0  0  0  0
    1.9592   -5.5820    0.0000 C   0  0  0  0  0  0  0  0  0  0  0  0
    2.6737   -5.9945    0.0000 C   0  0  0  0  0  0  0  0  0  0  0  0
    2.6737   -6.8195    0.0000 C   0  0  0  0  0  0  0  0  0  0  0  0
    1.9592   -7.2320    0.0000 C   0  0  0  0  0  0  0  0  0  0  0  0
    1.2448   -6.8195    0.0000 C   0  0  0  0  0  0  0  0  0  0  0  0
    1.2448   -5.9945    0.0000 C   0  0  0  0  0  0  0  0  0  0  0  0
    2.7842   -4.7570    0.0000 C   0  0  0  0  0  0  0  0  0  0  0  0
    3.1967   -4.0425    0.0000 C   0  0  0  0  0  0  0  0  0  0  0  0
    4.0217   -4.0425    0.0000 C   0  0  0  0  0  0  0  0  0  0  0  0
    4.4342   -4.7570    0.0000 C   0  0  0  0  0  0  0  0  0  0  0  0
    4.0217   -5.4715    0.0000 C   0  0  0  0  0  0  0  0  0  0  0  0
    3.1967   -5.4715    0.0000 C   0  0  0  0  0  0  0  0  0  0  0  0
    0.5303   -2.2820    0.0000 C   0  0  0  0  0  0  0  0  0  0  0  0
    0.5303   -1.4570    0.0000 C   0  0  0  0  0  0  0  0  0  0  0  0
    1.7751   -0.4125    0.0000 C   0  0  0  0  0  0  0  0  0  0  0  0
    1.4929    0.3627    0.0000 C   0  0  0  0  0  0  0  0  0  0  0  0
    2.0232    0.9947    0.0000 C   0  0  0  0  0  0  0  0  0  0  0  0
    2.8357    0.8515    0.0000 C   0  0  0  0  0  0  0  0  0  0  0  0
    3.1178    0.0762    0.0000 C   0  0  0  0  0  0  0  0  0  0  0  0
    2.5875   -0.5558    0.0000 C   0  0  0  0  0  0  0  0  0  0  0  0
  1  2  1  0  0  0  0
  2  3  1  0  0  0  0
  3  4  1  0  0  0  0
  4  5  2  0  0  0  0
  4  6  1  0  0  0  0
  6  7  1  0  0  0  0
  7  8  1  0  0  0  0
  8  9  1  0  0  0  0
  9 10  1  0  0  0  0
 10 11  1  0  0  0  0
 11 12  1  0  0  0  0
 12 13  1  0  0  0  0
 13 14  3  0  0  0  0
 12 15  1  0  0  0  0
 15 16  4  0  0  0  0
 16 17  4  0  0  0  0
 17 18  4  0  0  0  0
 18 19  4  0  0  0  0
 19 20  4  0  0  0  0
 15 20  4  0  0  0  0
 12 21  1  0  0  0  0
 21 22  4  0  0  0  0
 22 23  4  0  0  0  0
 23 24  4  0  0  0  0
 24 25  4  0  0  0  0
 25 26  4  0  0  0  0
 21 26  4  0  0  0  0
  9 27  1  0  0  0  0
 27 28  1  0  0  0  0
  6 28  1  0  0  0  0
  6 29  1  0  0  0  0
 29 30  4  0  0  0  0
 30 31  4  0  0  0  0
 31 32  4  0  0  0  0
 32 33  4  0  0  0  0
 33 34  4  0  0  0  0
 29 34  4  0  0  0  0
M  END
>  <ID>
918

>  <PREFERRED_NAME>
diphenoxylate

>  <CAS_RN>
915-30-0

>  <SYNONYMS>
diphenoxylate
diphenoxylate hydrochloride
diphenoxylate HCl

>  <URL>
http://drugcentral.org/drugcard/918/view

$$$$
