dipipanone
  -INDIGO-06102310582D

 26 28  0  0  0  0  0  0  0  0999 V2000
    2.1730    4.4270    0.0000 C   0  0  0  0  0  0  0  0  0  0  0  0
    2.1730    3.6020    0.0000 C   0  0  0  0  0  0  0  0  0  0  0  0
    2.8875    3.1895    0.0000 C   0  0  0  0  0  0  0  0  0  0  0  0
    3.6020    3.6020    0.0000 O   0  0  0  0  0  0  0  0  0  0  0  0
    2.8875    2.3645    0.0000 C   0  0  0  0  0  0  0  0  0  0  0  0
    2.8875    1.5395    0.0000 C   0  0  0  0  0  0  0  0  0  0  0  0
    3.6020    1.1270    0.0000 C   0  0  0  0  0  0  0  0  0  0  0  0
    4.4089    1.2985    0.0000 C   0  0  0  0  0  0  0  0  0  0  0  0
    3.6020    0.3020    0.0000 N   0  0  0  0  0  0  0  0  0  0  0  0
    4.3164   -0.1105    0.0000 C   0  0  0  0  0  0  0  0  0  0  0  0
    4.3164   -0.9355    0.0000 C   0  0  0  0  0  0  0  0  0  0  0  0
    3.6020   -1.3480    0.0000 C   0  0  0  0  0  0  0  0  0  0  0  0
    2.8875   -0.9355    0.0000 C   0  0  0  0  0  0  0  0  0  0  0  0
    2.8875   -0.1105    0.0000 C   0  0  0  0  0  0  0  0  0  0  0  0
    2.0625    2.3645    0.0000 C   0  0  0  0  0  0  0  0  0  0  0  0
    1.6500    1.6500    0.0000 C   0  0  0  0  0  0  0  0  0  0  0  0
    0.8250    1.6500    0.0000 C   0  0  0  0  0  0  0  0  0  0  0  0
    0.4125    2.3645    0.0000 C   0  0  0  0  0  0  0  0  0  0  0  0
    0.8250    3.0789    0.0000 C   0  0  0  0  0  0  0  0  0  0  0  0
    1.6500    3.0789    0.0000 C   0  0  0  0  0  0  0  0  0  0  0  0
    3.7125    2.3645    0.0000 C   0  0  0  0  0  0  0  0  0  0  0  0
    4.1250    3.0789    0.0000 C   0  0  0  0  0  0  0  0  0  0  0  0
    4.9500    3.0789    0.0000 C   0  0  0  0  0  0  0  0  0  0  0  0
    5.3625    2.3645    0.0000 C   0  0  0  0  0  0  0  0  0  0  0  0
    4.9500    1.6500    0.0000 C   0  0  0  0  0  0  0  0  0  0  0  0
    4.1250    1.6500    0.0000 C   0  0  0  0  0  0  0  0  0  0  0  0
  1  2  1  0  0  0  0
  2  3  1  0  0  0  0
  3  4  2  0  0  0  0
  3  5  1  0  0  0  0
  5  6  1  0  0  0  0
  6  7  1  0  0  0  0
  7  8  1  0  0  0  0
  7  9  1  0  0  0  0
  9 10  1  0  0  0  0
 10 11  1  0  0  0  0
 11 12  1  0  0  0  0
 12 13  1  0  0  0  0
 13 14  1  0  0  0  0
  9 14  1  0  0  0  0
  5 15  1  0  0  0  0
 15 16  4  0  0  0  0
 16 17  4  0  0  0  0
 17 18  4  0  0  0  0
 18 19  4  0  0  0  0
 19 20  4  0  0  0  0
 15 20  4  0  0  0  0
  5 21  1  0  0  0  0
 21 22  4  0  0  0  0
 22 23  4  0  0  0  0
 23 24  4  0  0  0  0
 24 25  4  0  0  0  0
 25 26  4  0  0  0  0
 21 26  4  0  0  0  0
M  END
>  <ID>
921

>  <PREFERRED_NAME>
dipipanone

>  <CAS_RN>
467-83-4

>  <SYNONYMS>
dipipanone
dipipanon
piperidylamidone

>  <URL>
http://drugcentral.org/drugcard/921/view

$$$$
