diquafosol
  -INDIGO-06102311172D

 49 52  0  0  1  0  0  0  0  0999 V2000
    0.7145   -0.4125    0.0000 O   0  0  0  0  0  0  0  0  0  0  0  0
    0.7145   -1.2375    0.0000 C   0  0  1  0  0  0  0  0  0  0  0  0
    1.3819   -1.7224    0.0000 C   0  0  1  0  0  0  0  0  0  0  0  0
    2.1665   -1.4675    0.0000 O   0  0  0  0  0  0  0  0  0  0  0  0
    1.1270   -2.5070    0.0000 C   0  0  1  0  0  0  0  0  0  0  0  0
    0.3020   -2.5070    0.0000 O   0  0  0  0  0  0  0  0  0  0  0  0
    0.0470   -1.7224    0.0000 C   0  0  2  0  0  0  0  0  0  0  0  0
   -0.7376   -1.4675    0.0000 C   0  0  0  0  0  0  0  0  0  0  0  0
   -0.9091   -0.6605    0.0000 O   0  0  0  0  0  0  0  0  0  0  0  0
   -1.6937   -0.4056    0.0000 P   0  0  0  0  0  0  0  0  0  0  0  0
   -1.9487   -1.1902    0.0000 O   0  0  0  0  0  0  0  0  0  0  0  0
   -1.4388    0.3790    0.0000 O   0  0  0  0  0  0  0  0  0  0  0  0
   -2.4784   -0.1506    0.0000 O   0  0  0  0  0  0  0  0  0  0  0  0
   -2.6499    0.6563    0.0000 P   0  0  0  0  0  0  0  0  0  0  0  0
   -3.4569    0.4848    0.0000 O   0  0  0  0  0  0  0  0  0  0  0  0
   -1.8429    0.8279    0.0000 O   0  0  0  0  0  0  0  0  0  0  0  0
   -2.8214    1.4633    0.0000 O   0  0  0  0  0  0  0  0  0  0  0  0
   -3.6060    1.7182    0.0000 P   0  0  0  0  0  0  0  0  0  0  0  0
   -3.8610    0.9336    0.0000 O   0  0  0  0  0  0  0  0  0  0  0  0
   -3.3511    2.5029    0.0000 O   0  0  0  0  0  0  0  0  0  0  0  0
   -4.3907    1.9732    0.0000 O   0  0  0  0  0  0  0  0  0  0  0  0
   -4.5622    2.7802    0.0000 P   0  0  0  0  0  0  0  0  0  0  0  0
   -5.3692    2.6086    0.0000 O   0  0  0  0  0  0  0  0  0  0  0  0
   -3.7552    2.9517    0.0000 O   0  0  0  0  0  0  0  0  0  0  0  0
   -4.7337    3.5871    0.0000 O   0  0  0  0  0  0  0  0  0  0  0  0
   -5.5183    3.8421    0.0000 C   0  0  0  0  0  0  0  0  0  0  0  0
   -5.6899    4.6490    0.0000 C   0  0  1  0  0  0  0  0  0  0  0  0
   -6.4435    4.9846    0.0000 O   0  0  0  0  0  0  0  0  0  0  0  0
   -6.3573    5.8051    0.0000 C   0  0  2  0  0  0  0  0  0  0  0  0
   -5.5503    5.9766    0.0000 C   0  0  2  0  0  0  0  0  0  0  0  0
   -5.2148    6.7303    0.0000 O   0  0  0  0  0  0  0  0  0  0  0  0
   -5.1378    5.2621    0.0000 C   0  0  2  0  0  0  0  0  0  0  0  0
   -4.3173    5.1759    0.0000 O   0  0  0  0  0  0  0  0  0  0  0  0
   -6.9704    6.3571    0.0000 N   0  0  0  0  0  0  0  0  0  0  0  0
   -7.7550    6.1022    0.0000 C   0  0  0  0  0  0  0  0  0  0  0  0
   -8.3681    6.6542    0.0000 C   0  0  0  0  0  0  0  0  0  0  0  0
   -8.1966    7.4612    0.0000 C   0  0  0  0  0  0  0  0  0  0  0  0
   -8.8097    8.0132    0.0000 O   0  0  0  0  0  0  0  0  0  0  0  0
   -7.4120    7.7161    0.0000 N   0  0  0  0  0  0  0  0  0  0  0  0
   -6.7989    7.1641    0.0000 C   0  0  0  0  0  0  0  0  0  0  0  0
   -6.0142    7.4190    0.0000 O   0  0  0  0  0  0  0  0  0  0  0  0
    1.6119   -3.1745    0.0000 N   0  0  0  0  0  0  0  0  0  0  0  0
    2.4324   -3.0882    0.0000 C   0  0  0  0  0  0  0  0  0  0  0  0
    2.9173   -3.7557    0.0000 C   0  0  0  0  0  0  0  0  0  0  0  0
    2.5817   -4.5094    0.0000 C   0  0  0  0  0  0  0  0  0  0  0  0
    3.0667   -5.1768    0.0000 O   0  0  0  0  0  0  0  0  0  0  0  0
    1.7613   -4.5956    0.0000 N   0  0  0  0  0  0  0  0  0  0  0  0
    1.2763   -3.9282    0.0000 C   0  0  0  0  0  0  0  0  0  0  0  0
    0.4559   -4.0144    0.0000 O   0  0  0  0  0  0  0  0  0  0  0  0
  2  1  1  1  0  0  0
  2  3  1  0  0  0  0
  3  4  1  1  0  0  0
  3  5  1  0  0  0  0
  5  6  1  0  0  0  0
  6  7  1  0  0  0  0
  2  7  1  0  0  0  0
  7  8  1  6  0  0  0
  8  9  1  0  0  0  0
  9 10  1  0  0  0  0
 10 11  1  0  0  0  0
 10 12  2  0  0  0  0
 10 13  1  0  0  0  0
 13 14  1  0  0  0  0
 14 15  1  0  0  0  0
 14 16  2  0  0  0  0
 14 17  1  0  0  0  0
 17 18  1  0  0  0  0
 18 19  1  0  0  0  0
 18 20  2  0  0  0  0
 18 21  1  0  0  0  0
 21 22  1  0  0  0  0
 22 23  1  0  0  0  0
 22 24  2  0  0  0  0
 22 25  1  0  0  0  0
 25 26  1  0  0  0  0
 27 26  1  1  0  0  0
 27 28  1  0  0  0  0
 28 29  1  0  0  0  0
 29 30  1  0  0  0  0
 30 31  1  6  0  0  0
 30 32  1  0  0  0  0
 27 32  1  0  0  0  0
 32 33  1  6  0  0  0
 29 34  1  1  0  0  0
 34 35  1  0  0  0  0
 35 36  2  0  0  0  0
 36 37  1  0  0  0  0
 37 38  2  0  0  0  0
 37 39  1  0  0  0  0
 39 40  1  0  0  0  0
 34 40  1  0  0  0  0
 40 41  2  0  0  0  0
  5 42  1  6  0  0  0
 42 43  1  0  0  0  0
 43 44  2  0  0  0  0
 44 45  1  0  0  0  0
 45 46  2  0  0  0  0
 45 47  1  0  0  0  0
 47 48  1  0  0  0  0
 42 48  1  0  0  0  0
 48 49  2  0  0  0  0
M  END
>  <ID>
4900

>  <PREFERRED_NAME>
diquafosol

>  <CAS_RN>
59985-21-6

>  <SYNONYMS>
diquafosol
diquafosol sodium
diquafosol tetrasodium
INS365
INS-365
Up4U
KPY 998
DE 089

>  <URL>
http://drugcentral.org/drugcard/4900/view

$$$$
