diroximel fumarate
  -INDIGO-06102311222D

 18 18  0  0  0  0  0  0  0  0999 V2000
   -2.8299   -3.6748    0.0000 C   0  0  0  0  0  0  0  0  0  0  0  0
   -2.1154   -3.2623    0.0000 O   0  0  0  0  0  0  0  0  0  0  0  0
   -1.4009   -3.6748    0.0000 C   0  0  0  0  0  0  0  0  0  0  0  0
   -1.4009   -4.4998    0.0000 O   0  0  0  0  0  0  0  0  0  0  0  0
   -0.6865   -3.2623    0.0000 C   0  0  0  0  0  0  0  0  0  0  0  0
    0.0280   -3.6748    0.0000 C   0  0  0  0  0  0  0  0  0  0  0  0
    0.7425   -3.2623    0.0000 C   0  0  0  0  0  0  0  0  0  0  0  0
    1.4569   -3.6748    0.0000 O   0  0  0  0  0  0  0  0  0  0  0  0
    0.7425   -2.4373    0.0000 O   0  0  0  0  0  0  0  0  0  0  0  0
    1.4569   -2.0248    0.0000 C   0  0  0  0  0  0  0  0  0  0  0  0
    2.1714   -2.4373    0.0000 C   0  0  0  0  0  0  0  0  0  0  0  0
    2.8859   -2.0248    0.0000 N   0  0  0  0  0  0  0  0  0  0  0  0
    2.9721   -1.2043    0.0000 C   0  0  0  0  0  0  0  0  0  0  0  0
    2.3590   -0.6523    0.0000 O   0  0  0  0  0  0  0  0  0  0  0  0
    3.7791   -1.0328    0.0000 C   0  0  0  0  0  0  0  0  0  0  0  0
    4.1916   -1.7472    0.0000 C   0  0  0  0  0  0  0  0  0  0  0  0
    3.6396   -2.3603    0.0000 C   0  0  0  0  0  0  0  0  0  0  0  0
    3.8111   -3.1673    0.0000 O   0  0  0  0  0  0  0  0  0  0  0  0
  1  2  1  0  0  0  0
  2  3  1  0  0  0  0
  3  4  2  0  0  0  0
  3  5  1  0  0  0  0
  5  6  2  0  0  0  0
  6  7  1  0  0  0  0
  7  8  2  0  0  0  0
  7  9  1  0  0  0  0
  9 10  1  0  0  0  0
 10 11  1  0  0  0  0
 11 12  1  0  0  0  0
 12 13  1  0  0  0  0
 13 14  2  0  0  0  0
 13 15  1  0  0  0  0
 15 16  1  0  0  0  0
 16 17  1  0  0  0  0
 12 17  1  0  0  0  0
 17 18  2  0  0  0  0
M  END
>  <ID>
5502

>  <PREFERRED_NAME>
diroximel fumarate

>  <CAS_RN>
1577222-14-0

>  <SYNONYMS>
diroximel fumarate
vumerity
ALKS 8700
RDC-5108

>  <URL>
http://drugcentral.org/drugcard/5502/view

$$$$
