dithiazanine
  -INDIGO-06102310582D

 27 30  0  0  0  0  0  0  0  0999 V2000
   -2.9435   -4.5512    0.0000 C   0  0  0  0  0  0  0  0  0  0  0  0
   -3.1984   -3.7666    0.0000 C   0  0  0  0  0  0  0  0  0  0  0  0
   -4.0054   -3.5950    0.0000 N   0  0  0  0  0  0  0  0  0  0  0  0
   -4.3409   -2.8414    0.0000 C   0  0  0  0  0  0  0  0  0  0  0  0
   -5.1614   -2.9276    0.0000 S   0  0  0  0  0  0  0  0  0  0  0  0
   -5.3329   -3.7346    0.0000 C   0  0  0  0  0  0  0  0  0  0  0  0
   -4.6185   -4.1471    0.0000 C   0  0  0  0  0  0  0  0  0  0  0  0
   -4.6185   -4.9721    0.0000 C   0  0  0  0  0  0  0  0  0  0  0  0
   -5.3329   -5.3846    0.0000 C   0  0  0  0  0  0  0  0  0  0  0  0
   -6.0474   -4.9721    0.0000 C   0  0  0  0  0  0  0  0  0  0  0  0
   -6.0474   -4.1471    0.0000 C   0  0  0  0  0  0  0  0  0  0  0  0
   -3.9284   -2.1269    0.0000 C   0  0  0  0  0  0  0  0  0  0  0  0
   -3.1034   -2.1269    0.0000 C   0  0  0  0  0  0  0  0  0  0  0  0
   -2.6909   -1.4124    0.0000 C   0  0  0  0  0  0  0  0  0  0  0  0
   -1.8659   -1.4124    0.0000 C   0  0  0  0  0  0  0  0  0  0  0  0
   -1.4534   -0.6979    0.0000 C   0  0  0  0  0  0  0  0  0  0  0  0
   -0.6284   -0.6979    0.0000 C   0  0  0  0  0  0  0  0  0  0  0  0
   -0.1435   -1.3654    0.0000 N   0  0  0  0  0  0  0  0  0  0  0  0
   -0.3984   -2.1500    0.0000 C   0  0  0  0  0  0  0  0  0  0  0  0
    0.1536   -2.7631    0.0000 C   0  0  0  0  0  0  0  0  0  0  0  0
    0.6411   -1.1104    0.0000 C   0  0  0  0  0  0  0  0  0  0  0  0
    0.6411   -0.2854    0.0000 C   0  0  0  0  0  0  0  0  0  0  0  0
   -0.1435   -0.0305    0.0000 S   0  0  0  0  0  0  0  0  0  0  0  0
    1.3556    0.1271    0.0000 C   0  0  0  0  0  0  0  0  0  0  0  0
    2.0701   -0.2854    0.0000 C   0  0  0  0  0  0  0  0  0  0  0  0
    2.0701   -1.1104    0.0000 C   0  0  0  0  0  0  0  0  0  0  0  0
    1.3556   -1.5229    0.0000 C   0  0  0  0  0  0  0  0  0  0  0  0
  1  2  1  0  0  0  0
  2  3  1  0  0  0  0
  3  4  1  0  0  0  0
  4  5  1  0  0  0  0
  5  6  1  0  0  0  0
  6  7  4  0  0  0  0
  3  7  1  0  0  0  0
  7  8  4  0  0  0  0
  8  9  4  0  0  0  0
  9 10  4  0  0  0  0
 10 11  4  0  0  0  0
  6 11  4  0  0  0  0
  4 12  2  0  0  0  0
 12 13  1  0  0  0  0
 13 14  2  0  0  0  0
 14 15  1  0  0  0  0
 15 16  2  0  0  0  0
 16 17  1  0  0  0  0
 17 18  4  0  0  0  0
 18 19  1  0  0  0  0
 19 20  1  0  0  0  0
 18 21  4  0  0  0  0
 21 22  4  0  0  0  0
 22 23  4  0  0  0  0
 17 23  4  0  0  0  0
 22 24  4  0  0  0  0
 24 25  4  0  0  0  0
 25 26  4  0  0  0  0
 26 27  4  0  0  0  0
 21 27  4  0  0  0  0
M  CHG  1  18   1
M  END
>  <ID>
930

>  <PREFERRED_NAME>
dithiazanine

>  <CAS_RN>
7187-55-5

>  <SYNONYMS>
dithiazanine
dithiazanine iodide

>  <URL>
http://drugcentral.org/drugcard/930/view

$$$$
