doxacurium
  -INDIGO-06102311072D

 74 79  0  0  0  0  0  0  0  0999 V2000
    5.4544   -7.0943    0.0000 C   0  0  0  0  0  0  0  0  0  0  0  0
    6.2479   -6.8683    0.0000 O   0  0  0  0  0  0  0  0  0  0  0  0
    6.4489   -6.0681    0.0000 C   0  0  0  0  0  0  0  0  0  0  0  0
    5.8564   -5.4940    0.0000 C   0  0  0  0  0  0  0  0  0  0  0  0
    6.0574   -4.6939    0.0000 C   0  0  0  0  0  0  0  0  0  0  0  0
    5.4650   -4.1197    0.0000 C   0  0  0  0  0  0  0  0  0  0  0  0
    4.6716   -4.3457    0.0000 C   0  0  0  0  0  0  0  0  0  0  0  0
    4.0791   -3.7715    0.0000 C   0  0  0  0  0  0  0  0  0  0  0  0
    4.2801   -2.9714    0.0000 C   0  0  0  0  0  0  0  0  0  0  0  0
    5.0736   -2.7454    0.0000 O   0  0  0  0  0  0  0  0  0  0  0  0
    5.2746   -1.9453    0.0000 C   0  0  0  0  0  0  0  0  0  0  0  0
    3.6877   -2.3973    0.0000 C   0  0  0  0  0  0  0  0  0  0  0  0
    3.8887   -1.5971    0.0000 O   0  0  0  0  0  0  0  0  0  0  0  0
    3.2963   -1.0230    0.0000 C   0  0  0  0  0  0  0  0  0  0  0  0
    2.8943   -2.6232    0.0000 C   0  0  0  0  0  0  0  0  0  0  0  0
    2.3018   -2.0491    0.0000 O   0  0  0  0  0  0  0  0  0  0  0  0
    1.5084   -2.2751    0.0000 C   0  0  0  0  0  0  0  0  0  0  0  0
    2.6933   -3.4234    0.0000 C   0  0  0  0  0  0  0  0  0  0  0  0
    3.2857   -3.9975    0.0000 C   0  0  0  0  0  0  0  0  0  0  0  0
    3.0847   -4.7977    0.0000 C   0  0  0  0  0  0  0  0  0  0  0  0
    3.6771   -5.3718    0.0000 C   0  0  0  0  0  0  0  0  0  0  0  0
    4.4706   -5.1458    0.0000 N   0  0  0  0  0  0  0  0  0  0  0  0
    4.7241   -5.9309    0.0000 C   0  0  0  0  0  0  0  0  0  0  0  0
    5.2632   -5.3746    0.0000 C   0  0  0  0  0  0  0  0  0  0  0  0
    5.4613   -6.1755    0.0000 C   0  0  0  0  0  0  0  0  0  0  0  0
    4.8669   -6.7475    0.0000 C   0  0  0  0  0  0  0  0  0  0  0  0
    5.0650   -7.5484    0.0000 O   0  0  0  0  0  0  0  0  0  0  0  0
    5.8577   -7.7772    0.0000 C   0  0  0  0  0  0  0  0  0  0  0  0
    6.0558   -8.5780    0.0000 O   0  0  0  0  0  0  0  0  0  0  0  0
    6.4521   -7.2052    0.0000 C   0  0  0  0  0  0  0  0  0  0  0  0
    7.2448   -7.4340    0.0000 C   0  0  0  0  0  0  0  0  0  0  0  0
    7.8392   -6.8619    0.0000 C   0  0  0  0  0  0  0  0  0  0  0  0
    7.6411   -6.0611    0.0000 O   0  0  0  0  0  0  0  0  0  0  0  0
    8.6319   -7.0908    0.0000 O   0  0  0  0  0  0  0  0  0  0  0  0
    9.2264   -6.5187    0.0000 C   0  0  0  0  0  0  0  0  0  0  0  0
   10.0190   -6.7475    0.0000 C   0  0  0  0  0  0  0  0  0  0  0  0
   10.6135   -6.1755    0.0000 C   0  0  0  0  0  0  0  0  0  0  0  0
   11.4061   -6.4043    0.0000 N   0  0  0  0  0  0  0  0  0  0  0  0
   11.0431   -7.1452    0.0000 C   0  0  0  0  0  0  0  0  0  0  0  0
   11.4938   -5.5840    0.0000 C   0  0  0  0  0  0  0  0  0  0  0  0
   12.2481   -5.2498    0.0000 C   0  0  0  0  0  0  0  0  0  0  0  0
   12.9146   -5.7359    0.0000 C   0  0  0  0  0  0  0  0  0  0  0  0
   13.6689   -5.4017    0.0000 C   0  0  0  0  0  0  0  0  0  0  0  0
   14.3355   -5.8878    0.0000 C   0  0  0  0  0  0  0  0  0  0  0  0
   15.0898   -5.5536    0.0000 O   0  0  0  0  0  0  0  0  0  0  0  0
   15.1775   -4.7332    0.0000 C   0  0  0  0  0  0  0  0  0  0  0  0
   14.2478   -6.7081    0.0000 C   0  0  0  0  0  0  0  0  0  0  0  0
   14.9144   -7.1942    0.0000 O   0  0  0  0  0  0  0  0  0  0  0  0
   15.6686   -6.8600    0.0000 C   0  0  0  0  0  0  0  0  0  0  0  0
   13.4935   -7.0423    0.0000 C   0  0  0  0  0  0  0  0  0  0  0  0
   13.4058   -7.8626    0.0000 O   0  0  0  0  0  0  0  0  0  0  0  0
   14.0724   -8.3488    0.0000 C   0  0  0  0  0  0  0  0  0  0  0  0
   12.8269   -6.5562    0.0000 C   0  0  0  0  0  0  0  0  0  0  0  0
   12.0727   -6.8904    0.0000 C   0  0  0  0  0  0  0  0  0  0  0  0
   11.9850   -7.7107    0.0000 C   0  0  0  0  0  0  0  0  0  0  0  0
   11.2307   -8.0450    0.0000 C   0  0  0  0  0  0  0  0  0  0  0  0
   11.1430   -8.8653    0.0000 C   0  0  0  0  0  0  0  0  0  0  0  0
   10.3887   -9.1995    0.0000 C   0  0  0  0  0  0  0  0  0  0  0  0
   10.3010  -10.0198    0.0000 O   0  0  0  0  0  0  0  0  0  0  0  0
   10.9676  -10.5059    0.0000 C   0  0  0  0  0  0  0  0  0  0  0  0
    9.7222   -8.7134    0.0000 C   0  0  0  0  0  0  0  0  0  0  0  0
    8.9679   -9.0476    0.0000 O   0  0  0  0  0  0  0  0  0  0  0  0
    8.8802   -9.8679    0.0000 C   0  0  0  0  0  0  0  0  0  0  0  0
    9.8099   -7.8931    0.0000 C   0  0  0  0  0  0  0  0  0  0  0  0
    9.1433   -7.4070    0.0000 O   0  0  0  0  0  0  0  0  0  0  0  0
    8.3890   -7.7412    0.0000 C   0  0  0  0  0  0  0  0  0  0  0  0
   10.5641   -7.5589    0.0000 C   0  0  0  0  0  0  0  0  0  0  0  0
    6.8509   -4.4679    0.0000 C   0  0  0  0  0  0  0  0  0  0  0  0
    7.4433   -5.0420    0.0000 C   0  0  0  0  0  0  0  0  0  0  0  0
    8.2368   -4.8160    0.0000 O   0  0  0  0  0  0  0  0  0  0  0  0
    8.4378   -4.0159    0.0000 C   0  0  0  0  0  0  0  0  0  0  0  0
    7.2423   -5.8422    0.0000 C   0  0  0  0  0  0  0  0  0  0  0  0
    7.8347   -6.4163    0.0000 O   0  0  0  0  0  0  0  0  0  0  0  0
    8.6282   -6.1903    0.0000 C   0  0  0  0  0  0  0  0  0  0  0  0
  1  2  1  0  0  0  0
  2  3  1  0  0  0  0
  3  4  4  0  0  0  0
  4  5  4  0  0  0  0
  5  6  1  0  0  0  0
  6  7  1  0  0  0  0
  7  8  1  0  0  0  0
  8  9  4  0  0  0  0
  9 10  1  0  0  0  0
 10 11  1  0  0  0  0
  9 12  4  0  0  0  0
 12 13  1  0  0  0  0
 13 14  1  0  0  0  0
 12 15  4  0  0  0  0
 15 16  1  0  0  0  0
 16 17  1  0  0  0  0
 15 18  4  0  0  0  0
 18 19  4  0  0  0  0
  8 19  4  0  0  0  0
 19 20  1  0  0  0  0
 20 21  1  0  0  0  0
 21 22  1  0  0  0  0
  7 22  1  0  0  0  0
 22 23  1  0  0  0  0
 22 24  1  0  0  0  0
 24 25  1  0  0  0  0
 25 26  1  0  0  0  0
 26 27  1  0  0  0  0
 27 28  1  0  0  0  0
 28 29  2  0  0  0  0
 28 30  1  0  0  0  0
 30 31  1  0  0  0  0
 31 32  1  0  0  0  0
 32 33  2  0  0  0  0
 32 34  1  0  0  0  0
 34 35  1  0  0  0  0
 35 36  1  0  0  0  0
 36 37  1  0  0  0  0
 37 38  1  0  0  0  0
 38 39  1  0  0  0  0
 38 40  1  0  0  0  0
 40 41  1  0  0  0  0
 41 42  1  0  0  0  0
 42 43  4  0  0  0  0
 43 44  4  0  0  0  0
 44 45  1  0  0  0  0
 45 46  1  0  0  0  0
 44 47  4  0  0  0  0
 47 48  1  0  0  0  0
 48 49  1  0  0  0  0
 47 50  4  0  0  0  0
 50 51  1  0  0  0  0
 51 52  1  0  0  0  0
 50 53  4  0  0  0  0
 42 53  4  0  0  0  0
 53 54  1  0  0  0  0
 38 54  1  0  0  0  0
 54 55  1  0  0  0  0
 55 56  1  0  0  0  0
 56 57  4  0  0  0  0
 57 58  4  0  0  0  0
 58 59  1  0  0  0  0
 59 60  1  0  0  0  0
 58 61  4  0  0  0  0
 61 62  1  0  0  0  0
 62 63  1  0  0  0  0
 61 64  4  0  0  0  0
 64 65  1  0  0  0  0
 65 66  1  0  0  0  0
 64 67  4  0  0  0  0
 56 67  4  0  0  0  0
  5 68  4  0  0  0  0
 68 69  4  0  0  0  0
 69 70  1  0  0  0  0
 70 71  1  0  0  0  0
 69 72  4  0  0  0  0
  3 72  4  0  0  0  0
 72 73  1  0  0  0  0
 73 74  1  0  0  0  0
M  CHG  2  22   1  38   1
M  END
>  <ID>
2974

>  <PREFERRED_NAME>
doxacurium

>  <CAS_RN>
133814-18-3

>  <SYNONYMS>
doxacurium
doxacurium chloride
BW-A938U

>  <URL>
http://drugcentral.org/drugcard/2974/view

$$$$
