doxapram
  -INDIGO-06102310582D

 28 31  0  0  0  0  0  0  0  0999 V2000
   -0.1919   -3.8378    0.0000 C   0  0  0  0  0  0  0  0  0  0  0  0
   -0.5275   -3.0841    0.0000 C   0  0  0  0  0  0  0  0  0  0  0  0
   -0.0425   -2.4167    0.0000 N   0  0  0  0  0  0  0  0  0  0  0  0
    0.7825   -2.4167    0.0000 C   0  0  0  0  0  0  0  0  0  0  0  0
    1.0374   -1.6320    0.0000 C   0  0  0  0  0  0  0  0  0  0  0  0
    1.8220   -1.3771    0.0000 C   0  0  0  0  0  0  0  0  0  0  0  0
    2.4351   -1.9291    0.0000 C   0  0  0  0  0  0  0  0  0  0  0  0
    3.2197   -1.6742    0.0000 N   0  0  0  0  0  0  0  0  0  0  0  0
    3.3913   -0.8672    0.0000 C   0  0  0  0  0  0  0  0  0  0  0  0
    4.1759   -0.6123    0.0000 C   0  0  0  0  0  0  0  0  0  0  0  0
    4.7890   -1.1643    0.0000 O   0  0  0  0  0  0  0  0  0  0  0  0
    4.6175   -1.9713    0.0000 C   0  0  0  0  0  0  0  0  0  0  0  0
    3.8328   -2.2262    0.0000 C   0  0  0  0  0  0  0  0  0  0  0  0
    0.3700   -1.1471    0.0000 C   0  0  0  0  0  0  0  0  0  0  0  0
   -0.2975   -1.6320    0.0000 C   0  0  0  0  0  0  0  0  0  0  0  0
   -1.0821   -1.3771    0.0000 O   0  0  0  0  0  0  0  0  0  0  0  0
    0.9772   -0.5887    0.0000 C   0  0  0  0  0  0  0  0  0  0  0  0
    0.7973    0.2164    0.0000 C   0  0  0  0  0  0  0  0  0  0  0  0
    1.4046    0.7749    0.0000 C   0  0  0  0  0  0  0  0  0  0  0  0
    2.1918    0.5281    0.0000 C   0  0  0  0  0  0  0  0  0  0  0  0
    2.3718   -0.2770    0.0000 C   0  0  0  0  0  0  0  0  0  0  0  0
    1.7645   -0.8354    0.0000 C   0  0  0  0  0  0  0  0  0  0  0  0
   -0.0350   -0.4284    0.0000 C   0  0  0  0  0  0  0  0  0  0  0  0
   -0.8600   -0.4197    0.0000 C   0  0  0  0  0  0  0  0  0  0  0  0
   -1.2650    0.2990    0.0000 C   0  0  0  0  0  0  0  0  0  0  0  0
   -0.8450    1.0091    0.0000 C   0  0  0  0  0  0  0  0  0  0  0  0
   -0.0201    1.0005    0.0000 C   0  0  0  0  0  0  0  0  0  0  0  0
    0.3849    0.2817    0.0000 C   0  0  0  0  0  0  0  0  0  0  0  0
  1  2  1  0  0  0  0
  2  3  1  0  0  0  0
  3  4  1  0  0  0  0
  4  5  1  0  0  0  0
  5  6  1  0  0  0  0
  6  7  1  0  0  0  0
  7  8  1  0  0  0  0
  8  9  1  0  0  0  0
  9 10  1  0  0  0  0
 10 11  1  0  0  0  0
 11 12  1  0  0  0  0
 12 13  1  0  0  0  0
  8 13  1  0  0  0  0
  5 14  1  0  0  0  0
 14 15  1  0  0  0  0
  3 15  1  0  0  0  0
 15 16  2  0  0  0  0
 14 17  1  0  0  0  0
 17 18  4  0  0  0  0
 18 19  4  0  0  0  0
 19 20  4  0  0  0  0
 20 21  4  0  0  0  0
 21 22  4  0  0  0  0
 17 22  4  0  0  0  0
 14 23  1  0  0  0  0
 23 24  4  0  0  0  0
 24 25  4  0  0  0  0
 25 26  4  0  0  0  0
 26 27  4  0  0  0  0
 27 28  4  0  0  0  0
 23 28  4  0  0  0  0
M  END
>  <ID>
953

>  <PREFERRED_NAME>
doxapram

>  <CAS_RN>
309-29-5

>  <SYNONYMS>
doxapram
doxapram hydrochloride hydrate
dopram
doxapram hydrochloride
doxapram HCl

>  <URL>
http://drugcentral.org/drugcard/953/view

$$$$
