eberconazole
  -INDIGO-06102310582D

 22 25  0  0  0  0  0  0  0  0999 V2000
   -0.3705   -1.6055    0.0000 Cl  0  0  0  0  0  0  0  0  0  0  0  0
    0.4178   -1.3623    0.0000 C   0  0  0  0  0  0  0  0  0  0  0  0
    0.6014   -0.5580    0.0000 C   0  0  0  0  0  0  0  0  0  0  0  0
    1.3897   -0.3148    0.0000 C   0  0  0  0  0  0  0  0  0  0  0  0
    1.5733    0.4895    0.0000 Cl  0  0  0  0  0  0  0  0  0  0  0  0
    1.9945   -0.8760    0.0000 C   0  0  0  0  0  0  0  0  0  0  0  0
    2.7378   -0.5180    0.0000 C   0  0  0  0  0  0  0  0  0  0  0  0
    2.7378    0.3070    0.0000 N   0  0  0  0  0  0  0  0  0  0  0  0
    2.0704    0.7919    0.0000 C   0  0  0  0  0  0  0  0  0  0  0  0
    2.3253    1.5765    0.0000 C   0  0  0  0  0  0  0  0  0  0  0  0
    3.1503    1.5765    0.0000 N   0  0  0  0  0  0  0  0  0  0  0  0
    3.4052    0.7919    0.0000 C   0  0  0  0  0  0  0  0  0  0  0  0
    3.4811   -0.8760    0.0000 C   0  0  0  0  0  0  0  0  0  0  0  0
    3.6647   -1.6803    0.0000 C   0  0  0  0  0  0  0  0  0  0  0  0
    3.1503   -2.3253    0.0000 C   0  0  0  0  0  0  0  0  0  0  0  0
    2.3253   -2.3253    0.0000 C   0  0  0  0  0  0  0  0  0  0  0  0
    1.8109   -1.6803    0.0000 C   0  0  0  0  0  0  0  0  0  0  0  0
    1.0226   -1.9235    0.0000 C   0  0  0  0  0  0  0  0  0  0  0  0
    4.4530   -1.9235    0.0000 C   0  0  0  0  0  0  0  0  0  0  0  0
    5.0578   -1.3623    0.0000 C   0  0  0  0  0  0  0  0  0  0  0  0
    4.8742   -0.5580    0.0000 C   0  0  0  0  0  0  0  0  0  0  0  0
    4.0859   -0.3148    0.0000 C   0  0  0  0  0  0  0  0  0  0  0  0
  1  2  1  0  0  0  0
  2  3  4  0  0  0  0
  3  4  4  0  0  0  0
  4  5  1  0  0  0  0
  4  6  4  0  0  0  0
  6  7  1  0  0  0  0
  7  8  1  0  0  0  0
  8  9  4  0  0  0  0
  9 10  4  0  0  0  0
 10 11  4  0  0  0  0
 11 12  4  0  0  0  0
  8 12  4  0  0  0  0
  7 13  1  0  0  0  0
 13 14  4  0  0  0  0
 14 15  1  0  0  0  0
 15 16  1  0  0  0  0
 16 17  1  0  0  0  0
  6 17  4  0  0  0  0
 17 18  4  0  0  0  0
  2 18  4  0  0  0  0
 14 19  4  0  0  0  0
 19 20  4  0  0  0  0
 20 21  4  0  0  0  0
 21 22  4  0  0  0  0
 13 22  4  0  0  0  0
M  END
>  <ID>
978

>  <PREFERRED_NAME>
eberconazole

>  <CAS_RN>
128326-82-9

>  <SYNONYMS>
eberconazole
ebernet
eberconazole nitrate

>  <URL>
http://drugcentral.org/drugcard/978/view

$$$$
