eburnamonine
  -INDIGO-06102311092D

 22 26  0  0  1  0  0  0  0  0999 V2000
   -0.7420   -2.2988    0.0000 C   0  0  0  0  0  0  0  0  0  0  0  0
    0.0817   -2.2516    0.0000 C   0  0  0  0  0  0  0  0  0  0  0  0
    0.4527   -1.5147    0.0000 C   0  0  2  0  0  0  0  0  0  0  0  0
   -0.3710   -1.5619    0.0000 C   0  0  0  0  0  0  0  0  0  0  0  0
   -0.8237   -0.8721    0.0000 C   0  0  0  0  0  0  0  0  0  0  0  0
   -0.4527   -0.1353    0.0000 C   0  0  0  0  0  0  0  0  0  0  0  0
    0.3710   -0.0881    0.0000 N   0  0  0  0  0  0  0  0  0  0  0  0
    0.7420    0.6488    0.0000 C   0  0  0  0  0  0  0  0  0  0  0  0
    1.5656    0.6959    0.0000 C   0  0  0  0  0  0  0  0  0  0  0  0
    2.0183    0.0062    0.0000 C   0  0  0  0  0  0  0  0  0  0  0  0
    1.6473   -0.7307    0.0000 C   0  0  0  0  0  0  0  0  0  0  0  0
    0.8237   -0.7779    0.0000 C   0  0  1  0  0  0  0  0  0  0  0  0
    2.1000   -1.4204    0.0000 N   0  0  0  0  0  0  0  0  0  0  0  0
    2.8958   -1.2031    0.0000 C   0  0  0  0  0  0  0  0  0  0  0  0
    3.5899   -1.6491    0.0000 C   0  0  0  0  0  0  0  0  0  0  0  0
    4.3231   -1.2710    0.0000 C   0  0  0  0  0  0  0  0  0  0  0  0
    4.3623   -0.4469    0.0000 C   0  0  0  0  0  0  0  0  0  0  0  0
    3.6683   -0.0009    0.0000 C   0  0  0  0  0  0  0  0  0  0  0  0
    2.9350   -0.3790    0.0000 C   0  0  0  0  0  0  0  0  0  0  0  0
    1.7290   -2.1573    0.0000 C   0  0  0  0  0  0  0  0  0  0  0  0
    2.1816   -2.8470    0.0000 O   0  0  0  0  0  0  0  0  0  0  0  0
    0.9053   -2.2045    0.0000 C   0  0  0  0  0  0  0  0  0  0  0  0
  1  2  1  0  0  0  0
  3  2  1  6  0  0  0
  3  4  1  0  0  0  0
  4  5  1  0  0  0  0
  5  6  1  0  0  0  0
  6  7  1  0  0  0  0
  7  8  1  0  0  0  0
  8  9  1  0  0  0  0
  9 10  1  0  0  0  0
 10 11  4  0  0  0  0
 12 11  1  1  0  0  0
  3 12  1  0  0  0  0
  7 12  1  0  0  0  0
 11 13  4  0  0  0  0
 13 14  4  0  0  0  0
 14 15  4  0  0  0  0
 15 16  4  0  0  0  0
 16 17  4  0  0  0  0
 17 18  4  0  0  0  0
 18 19  4  0  0  0  0
 10 19  4  0  0  0  0
 14 19  4  0  0  0  0
 13 20  1  0  0  0  0
 20 21  2  0  0  0  0
 20 22  1  0  0  0  0
  3 22  1  0  0  0  0
M  END
>  <ID>
3170

>  <PREFERRED_NAME>
eburnamonine

>  <CAS_RN>
474-00-0

>  <SYNONYMS>
eburnamonine
cervoxan
eburnamonine monohydrochloride
eburnamonine phosphate
(+)-Eburnamonine
(+)-Vincamone
(+)-cis-Eburnamonine
d-Eburnamonine

>  <URL>
http://drugcentral.org/drugcard/3170/view

$$$$
