edoxaban
  -INDIGO-06102311172D

 37 40  0  0  1  0  0  0  0  0999 V2000
    0.6091   -4.2703    0.0000 C   0  0  0  0  0  0  0  0  0  0  0  0
    1.0216   -3.5558    0.0000 N   0  0  0  0  0  0  0  0  0  0  0  0
    1.8466   -3.5558    0.0000 C   0  0  0  0  0  0  0  0  0  0  0  0
    0.6091   -2.8414    0.0000 C   0  0  0  0  0  0  0  0  0  0  0  0
    1.0216   -2.1269    0.0000 O   0  0  0  0  0  0  0  0  0  0  0  0
   -0.2159   -2.8414    0.0000 C   0  0  1  0  0  0  0  0  0  0  0  0
   -0.6284   -3.5558    0.0000 C   0  0  0  0  0  0  0  0  0  0  0  0
   -1.4534   -3.5558    0.0000 C   0  0  0  0  0  0  0  0  0  0  0  0
   -1.8659   -2.8414    0.0000 C   0  0  2  0  0  0  0  0  0  0  0  0
   -2.6909   -2.8414    0.0000 N   0  0  0  0  0  0  0  0  0  0  0  0
   -3.1034   -3.5558    0.0000 C   0  0  0  0  0  0  0  0  0  0  0  0
   -2.6909   -4.2703    0.0000 O   0  0  0  0  0  0  0  0  0  0  0  0
   -3.9284   -3.5558    0.0000 C   0  0  0  0  0  0  0  0  0  0  0  0
   -4.3409   -2.8414    0.0000 O   0  0  0  0  0  0  0  0  0  0  0  0
   -4.3409   -4.2703    0.0000 N   0  0  0  0  0  0  0  0  0  0  0  0
   -3.9284   -4.9848    0.0000 C   0  0  0  0  0  0  0  0  0  0  0  0
   -3.1034   -4.9848    0.0000 C   0  0  0  0  0  0  0  0  0  0  0  0
   -2.6909   -5.6992    0.0000 C   0  0  0  0  0  0  0  0  0  0  0  0
   -3.1034   -6.4137    0.0000 C   0  0  0  0  0  0  0  0  0  0  0  0
   -2.6909   -7.1282    0.0000 Cl  0  0  0  0  0  0  0  0  0  0  0  0
   -3.9284   -6.4137    0.0000 C   0  0  0  0  0  0  0  0  0  0  0  0
   -4.3409   -5.6992    0.0000 N   0  0  0  0  0  0  0  0  0  0  0  0
   -1.4534   -2.1269    0.0000 C   0  0  1  0  0  0  0  0  0  0  0  0
   -0.6284   -2.1269    0.0000 C   0  0  0  0  0  0  0  0  0  0  0  0
   -1.8659   -1.4124    0.0000 N   0  0  0  0  0  0  0  0  0  0  0  0
   -1.4534   -0.6979    0.0000 C   0  0  0  0  0  0  0  0  0  0  0  0
   -1.8659    0.0165    0.0000 O   0  0  0  0  0  0  0  0  0  0  0  0
   -0.6284   -0.6979    0.0000 C   0  0  0  0  0  0  0  0  0  0  0  0
   -0.1435   -1.3654    0.0000 N   0  0  0  0  0  0  0  0  0  0  0  0
    0.6411   -1.1104    0.0000 C   0  0  0  0  0  0  0  0  0  0  0  0
    0.6411   -0.2854    0.0000 C   0  0  0  0  0  0  0  0  0  0  0  0
    1.3556    0.1271    0.0000 C   0  0  0  0  0  0  0  0  0  0  0  0
    2.0701   -0.2854    0.0000 N   0  0  0  0  0  0  0  0  0  0  0  0
    2.7845    0.1271    0.0000 C   0  0  0  0  0  0  0  0  0  0  0  0
    2.0701   -1.1104    0.0000 C   0  0  0  0  0  0  0  0  0  0  0  0
    1.3556   -1.5229    0.0000 C   0  0  0  0  0  0  0  0  0  0  0  0
   -0.1435   -0.0305    0.0000 S   0  0  0  0  0  0  0  0  0  0  0  0
  1  2  1  0  0  0  0
  2  3  1  0  0  0  0
  2  4  1  0  0  0  0
  4  5  2  0  0  0  0
  6  4  1  1  0  0  0
  6  7  1  0  0  0  0
  7  8  1  0  0  0  0
  8  9  1  0  0  0  0
  9 10  1  6  0  0  0
 10 11  1  0  0  0  0
 11 12  2  0  0  0  0
 11 13  1  0  0  0  0
 13 14  2  0  0  0  0
 13 15  1  0  0  0  0
 15 16  1  0  0  0  0
 16 17  4  0  0  0  0
 17 18  4  0  0  0  0
 18 19  4  0  0  0  0
 19 20  1  0  0  0  0
 19 21  4  0  0  0  0
 21 22  4  0  0  0  0
 16 22  4  0  0  0  0
  9 23  1  0  0  0  0
 23 24  1  0  0  0  0
  6 24  1  0  0  0  0
 23 25  1  6  0  0  0
 25 26  1  0  0  0  0
 26 27  2  0  0  0  0
 26 28  1  0  0  0  0
 28 29  4  0  0  0  0
 29 30  4  0  0  0  0
 30 31  4  0  0  0  0
 31 32  1  0  0  0  0
 32 33  1  0  0  0  0
 33 34  1  0  0  0  0
 33 35  1  0  0  0  0
 35 36  1  0  0  0  0
 30 36  1  0  0  0  0
 31 37  4  0  0  0  0
 28 37  4  0  0  0  0
M  END
>  <ID>
4897

>  <PREFERRED_NAME>
edoxaban

>  <CAS_RN>
480449-70-5

>  <SYNONYMS>
edoxaban
edoxaban tosylate
edoxaban tosilate
edoxaban tosilate hydrate
lixiana
DU-176b
savaysa

>  <URL>
http://drugcentral.org/drugcard/4897/view

$$$$
