efavirenz
  -INDIGO-06102310582D

 21 23  0  0  1  0  0  0  0  0999 V2000
   -1.0606    1.2640    0.0000 F   0  0  0  0  0  0  0  0  0  0  0  0
   -0.5303    0.6320    0.0000 C   0  0  0  0  0  0  0  0  0  0  0  0
    0.1017    1.1623    0.0000 F   0  0  0  0  0  0  0  0  0  0  0  0
   -1.1623    0.1017    0.0000 F   0  0  0  0  0  0  0  0  0  0  0  0
    0.0000    0.0000    0.0000 C   0  0  1  0  0  0  0  0  0  0  0  0
   -0.7145   -0.4125    0.0000 O   0  0  0  0  0  0  0  0  0  0  0  0
   -0.7145   -1.2375    0.0000 C   0  0  0  0  0  0  0  0  0  0  0  0
   -1.4289   -1.6500    0.0000 O   0  0  0  0  0  0  0  0  0  0  0  0
    0.0000   -1.6500    0.0000 N   0  0  0  0  0  0  0  0  0  0  0  0
    0.7145   -1.2375    0.0000 C   0  0  0  0  0  0  0  0  0  0  0  0
    0.7145   -0.4125    0.0000 C   0  0  0  0  0  0  0  0  0  0  0  0
    1.4289    0.0000    0.0000 C   0  0  0  0  0  0  0  0  0  0  0  0
    2.1434   -0.4125    0.0000 C   0  0  0  0  0  0  0  0  0  0  0  0
    2.8579    0.0000    0.0000 Cl  0  0  0  0  0  0  0  0  0  0  0  0
    2.1434   -1.2375    0.0000 C   0  0  0  0  0  0  0  0  0  0  0  0
    1.4289   -1.6500    0.0000 C   0  0  0  0  0  0  0  0  0  0  0  0
    0.5303    0.6320    0.0000 C   0  0  0  0  0  0  0  0  0  0  0  0
    1.0606    1.2640    0.0000 C   0  0  0  0  0  0  0  0  0  0  0  0
    1.5909    1.8960    0.0000 C   0  0  0  0  0  0  0  0  0  0  0  0
    1.7342    2.7084    0.0000 C   0  0  0  0  0  0  0  0  0  0  0  0
    2.3661    2.1781    0.0000 C   0  0  0  0  0  0  0  0  0  0  0  0
  1  2  1  0  0  0  0
  2  3  1  0  0  0  0
  2  4  1  0  0  0  0
  5  2  1  6  0  0  0
  5  6  1  0  0  0  0
  6  7  1  0  0  0  0
  7  8  2  0  0  0  0
  7  9  1  0  0  0  0
  9 10  1  0  0  0  0
 10 11  4  0  0  0  0
  5 11  1  0  0  0  0
 11 12  4  0  0  0  0
 12 13  4  0  0  0  0
 13 14  1  0  0  0  0
 13 15  4  0  0  0  0
 15 16  4  0  0  0  0
 10 16  4  0  0  0  0
  5 17  1  1  0  0  0
 17 18  3  0  0  0  0
 18 19  1  0  0  0  0
 19 20  1  0  0  0  0
 20 21  1  0  0  0  0
 19 21  1  0  0  0  0
M  END
>  <ID>
989

>  <PREFERRED_NAME>
efavirenz

>  <CAS_RN>
154598-52-4

>  <SYNONYMS>
efavirenz
stocrin
(-)-Efavirenz
sustiva

>  <URL>
http://drugcentral.org/drugcard/989/view

$$$$
