elbasvir
  -INDIGO-06102311182D

 65 73  0  0  1  0  0  0  0  0999 V2000
   -0.5382   -6.7902    0.0000 C   0  0  0  0  0  0  0  0  0  0  0  0
    0.1005   -6.2679    0.0000 O   0  0  0  0  0  0  0  0  0  0  0  0
   -0.0325   -5.4537    0.0000 C   0  0  0  0  0  0  0  0  0  0  0  0
   -0.8041   -5.1617    0.0000 O   0  0  0  0  0  0  0  0  0  0  0  0
    0.6061   -4.9314    0.0000 N   0  0  0  0  0  0  0  0  0  0  0  0
    0.4732   -4.1172    0.0000 C   0  0  1  0  0  0  0  0  0  0  0  0
    1.1118   -3.5949    0.0000 C   0  0  0  0  0  0  0  0  0  0  0  0
    0.9551   -2.8949    0.0000 C   0  0  0  0  0  0  0  0  0  0  0  0
    1.8834   -3.8869    0.0000 C   0  0  0  0  0  0  0  0  0  0  0  0
   -0.2985   -3.8252    0.0000 C   0  0  0  0  0  0  0  0  0  0  0  0
   -0.9371   -4.3475    0.0000 O   0  0  0  0  0  0  0  0  0  0  0  0
   -0.4314   -3.0110    0.0000 N   0  0  0  0  0  0  0  0  0  0  0  0
   -1.1683   -2.6400    0.0000 C   0  0  0  0  0  0  0  0  0  0  0  0
   -1.0432   -1.8246    0.0000 C   0  0  0  0  0  0  0  0  0  0  0  0
   -0.2290   -1.6916    0.0000 C   0  0  0  0  0  0  0  0  0  0  0  0
    0.1491   -2.4249    0.0000 C   0  0  1  0  0  0  0  0  0  0  0  0
    0.9646   -2.5500    0.0000 C   0  0  0  0  0  0  0  0  0  0  0  0
    1.5451   -1.9638    0.0000 N   0  0  0  0  0  0  0  0  0  0  0  0
    2.2820   -2.3348    0.0000 C   0  0  0  0  0  0  0  0  0  0  0  0
    2.1568   -3.1503    0.0000 C   0  0  0  0  0  0  0  0  0  0  0  0
    1.3426   -3.2833    0.0000 N   0  0  0  0  0  0  0  0  0  0  0  0
    3.0152   -1.9568    0.0000 C   0  0  0  0  0  0  0  0  0  0  0  0
    3.7093   -2.4027    0.0000 C   0  0  0  0  0  0  0  0  0  0  0  0
    4.4426   -2.0247    0.0000 C   0  0  0  0  0  0  0  0  0  0  0  0
    4.4818   -1.2006    0.0000 C   0  0  0  0  0  0  0  0  0  0  0  0
    3.7877   -0.7546    0.0000 C   0  0  0  0  0  0  0  0  0  0  0  0
    3.0545   -1.1327    0.0000 C   0  0  0  0  0  0  0  0  0  0  0  0
    5.2776   -0.9832    0.0000 N   0  0  0  0  0  0  0  0  0  0  0  0
    5.6486   -0.2464    0.0000 C   0  0  1  0  0  0  0  0  0  0  0  0
    6.4723   -0.1992    0.0000 O   0  0  0  0  0  0  0  0  0  0  0  0
    6.9249   -0.8889    0.0000 C   0  0  0  0  0  0  0  0  0  0  0  0
    7.7486   -0.8418    0.0000 C   0  0  0  0  0  0  0  0  0  0  0  0
    8.2012   -1.5315    0.0000 C   0  0  0  0  0  0  0  0  0  0  0  0
    7.8302   -2.2684    0.0000 C   0  0  0  0  0  0  0  0  0  0  0  0
    7.0066   -2.3156    0.0000 C   0  0  0  0  0  0  0  0  0  0  0  0
    6.5539   -1.6258    0.0000 C   0  0  0  0  0  0  0  0  0  0  0  0
    5.7303   -1.6730    0.0000 C   0  0  0  0  0  0  0  0  0  0  0  0
    5.2142   -2.3166    0.0000 C   0  0  0  0  0  0  0  0  0  0  0  0
    9.0249   -1.4844    0.0000 C   0  0  0  0  0  0  0  0  0  0  0  0
    9.4709   -0.7903    0.0000 C   0  0  0  0  0  0  0  0  0  0  0  0
   10.2688   -1.0000    0.0000 N   0  0  0  0  0  0  0  0  0  0  0  0
   10.3159   -1.8237    0.0000 C   0  0  0  0  0  0  0  0  0  0  0  0
    9.5472   -2.1230    0.0000 N   0  0  0  0  0  0  0  0  0  0  0  0
   11.0100   -2.2697    0.0000 C   0  0  2  0  0  0  0  0  0  0  0  0
   11.0571   -3.0933    0.0000 C   0  0  0  0  0  0  0  0  0  0  0  0
   11.8551   -3.3030    0.0000 C   0  0  0  0  0  0  0  0  0  0  0  0
   12.3010   -2.6089    0.0000 C   0  0  0  0  0  0  0  0  0  0  0  0
   11.7788   -1.9703    0.0000 N   0  0  0  0  0  0  0  0  0  0  0  0
   11.9885   -1.1724    0.0000 C   0  0  0  0  0  0  0  0  0  0  0  0
   11.4023   -0.5918    0.0000 O   0  0  0  0  0  0  0  0  0  0  0  0
   12.7843   -0.9550    0.0000 C   0  0  1  0  0  0  0  0  0  0  0  0
   12.9940   -0.1571    0.0000 N   0  0  0  0  0  0  0  0  0  0  0  0
   13.7898    0.0602    0.0000 C   0  0  0  0  0  0  0  0  0  0  0  0
   14.3760   -0.5203    0.0000 O   0  0  0  0  0  0  0  0  0  0  0  0
   13.9995    0.8582    0.0000 O   0  0  0  0  0  0  0  0  0  0  0  0
   14.7954    1.0755    0.0000 C   0  0  0  0  0  0  0  0  0  0  0  0
   13.3705   -1.5356    0.0000 C   0  0  0  0  0  0  0  0  0  0  0  0
   13.1608   -2.3335    0.0000 C   0  0  0  0  0  0  0  0  0  0  0  0
   14.1663   -1.3182    0.0000 C   0  0  0  0  0  0  0  0  0  0  0  0
    5.1960    0.4434    0.0000 C   0  0  0  0  0  0  0  0  0  0  0  0
    4.3723    0.3962    0.0000 C   0  0  0  0  0  0  0  0  0  0  0  0
    3.9197    1.0860    0.0000 C   0  0  0  0  0  0  0  0  0  0  0  0
    4.2907    1.8228    0.0000 C   0  0  0  0  0  0  0  0  0  0  0  0
    5.1143    1.8700    0.0000 C   0  0  0  0  0  0  0  0  0  0  0  0
    5.5670    1.1802    0.0000 C   0  0  0  0  0  0  0  0  0  0  0  0
  1  2  1  0  0  0  0
  2  3  1  0  0  0  0
  3  4  2  0  0  0  0
  3  5  1  0  0  0  0
  6  5  1  6  0  0  0
  6  7  1  0  0  0  0
  7  8  1  0  0  0  0
  7  9  1  0  0  0  0
  6 10  1  0  0  0  0
 10 11  2  0  0  0  0
 10 12  1  0  0  0  0
 12 13  1  0  0  0  0
 13 14  1  0  0  0  0
 14 15  1  0  0  0  0
 15 16  1  0  0  0  0
 12 16  1  0  0  0  0
 16 17  1  1  0  0  0
 17 18  4  0  0  0  0
 18 19  4  0  0  0  0
 19 20  4  0  0  0  0
 20 21  4  0  0  0  0
 17 21  4  0  0  0  0
 19 22  1  0  0  0  0
 22 23  4  0  0  0  0
 23 24  4  0  0  0  0
 24 25  4  0  0  0  0
 25 26  4  0  0  0  0
 26 27  4  0  0  0  0
 22 27  4  0  0  0  0
 25 28  4  0  0  0  0
 28 29  1  0  0  0  0
 29 30  1  0  0  0  0
 30 31  1  0  0  0  0
 31 32  4  0  0  0  0
 32 33  4  0  0  0  0
 33 34  4  0  0  0  0
 34 35  4  0  0  0  0
 35 36  4  0  0  0  0
 31 36  4  0  0  0  0
 36 37  1  0  0  0  0
 28 37  4  0  0  0  0
 37 38  4  0  0  0  0
 24 38  4  0  0  0  0
 33 39  1  0  0  0  0
 39 40  4  0  0  0  0
 40 41  4  0  0  0  0
 41 42  4  0  0  0  0
 42 43  4  0  0  0  0
 39 43  4  0  0  0  0
 44 42  1  1  0  0  0
 44 45  1  0  0  0  0
 45 46  1  0  0  0  0
 46 47  1  0  0  0  0
 47 48  1  0  0  0  0
 44 48  1  0  0  0  0
 48 49  1  0  0  0  0
 49 50  2  0  0  0  0
 49 51  1  0  0  0  0
 51 52  1  1  0  0  0
 52 53  1  0  0  0  0
 53 54  2  0  0  0  0
 53 55  1  0  0  0  0
 55 56  1  0  0  0  0
 51 57  1  0  0  0  0
 57 58  1  0  0  0  0
 57 59  1  0  0  0  0
 29 60  1  6  0  0  0
 60 61  4  0  0  0  0
 61 62  4  0  0  0  0
 62 63  4  0  0  0  0
 63 64  4  0  0  0  0
 64 65  4  0  0  0  0
 60 65  4  0  0  0  0
M  STY  2   1 DAT   2 DAT
M  SLB  2   1   1   2   2
M  SAL   1  1  41
M  SDT   1 MRV_IMPLICIT_H
M  SDD   1     0.0000    0.0000    DA    ALL  1       1
M  SED   1 IMPL_H1
M  SAL   2  1  21
M  SDT   2 MRV_IMPLICIT_H
M  SDD   2     0.0000    0.0000    DA    ALL  1       1
M  SED   2 IMPL_H1
M  END
>  <ID>
5080

>  <PREFERRED_NAME>
elbasvir

>  <CAS_RN>
1370468-36-2

>  <SYNONYMS>
elbasvir
MK-8742
MK 8742

>  <URL>
http://drugcentral.org/drugcard/5080/view

$$$$
