encorafenib
  -INDIGO-06102311212D

 36 38  0  0  1  0  0  0  0  0999 V2000
    5.5438   -2.9108    0.0000 C   0  0  0  0  0  0  0  0  0  0  0  0
    6.2583   -3.3233    0.0000 O   0  0  0  0  0  0  0  0  0  0  0  0
    6.9728   -2.9108    0.0000 C   0  0  0  0  0  0  0  0  0  0  0  0
    6.9728   -2.0858    0.0000 O   0  0  0  0  0  0  0  0  0  0  0  0
    7.6872   -3.3233    0.0000 N   0  0  0  0  0  0  0  0  0  0  0  0
    8.4017   -2.9108    0.0000 C   0  0  1  0  0  0  0  0  0  0  0  0
    8.4017   -2.0858    0.0000 C   0  0  0  0  0  0  0  0  0  0  0  0
    9.1162   -3.3233    0.0000 C   0  0  0  0  0  0  0  0  0  0  0  0
    9.8307   -2.9108    0.0000 N   0  0  0  0  0  0  0  0  0  0  0  0
   10.5451   -3.3233    0.0000 C   0  0  0  0  0  0  0  0  0  0  0  0
   11.2596   -2.9108    0.0000 N   0  0  0  0  0  0  0  0  0  0  0  0
   11.9741   -3.3233    0.0000 C   0  0  0  0  0  0  0  0  0  0  0  0
   11.9741   -4.1483    0.0000 C   0  0  0  0  0  0  0  0  0  0  0  0
   11.2596   -4.5608    0.0000 C   0  0  0  0  0  0  0  0  0  0  0  0
   10.5451   -4.1483    0.0000 N   0  0  0  0  0  0  0  0  0  0  0  0
   12.6885   -2.9108    0.0000 C   0  0  0  0  0  0  0  0  0  0  0  0
   12.7748   -2.0903    0.0000 C   0  0  0  0  0  0  0  0  0  0  0  0
   13.5817   -1.9188    0.0000 N   0  0  0  0  0  0  0  0  0  0  0  0
   13.9942   -2.6333    0.0000 N   0  0  0  0  0  0  0  0  0  0  0  0
   13.4422   -3.2464    0.0000 C   0  0  0  0  0  0  0  0  0  0  0  0
   13.6137   -4.0533    0.0000 C   0  0  0  0  0  0  0  0  0  0  0  0
   14.3984   -4.3083    0.0000 C   0  0  0  0  0  0  0  0  0  0  0  0
   15.0115   -3.7562    0.0000 F   0  0  0  0  0  0  0  0  0  0  0  0
   14.5699   -5.1152    0.0000 C   0  0  0  0  0  0  0  0  0  0  0  0
   15.3545   -5.3702    0.0000 N   0  0  0  0  0  0  0  0  0  0  0  0
   15.9676   -4.8181    0.0000 S   0  0  0  0  0  0  0  0  0  0  0  0
   16.5807   -4.2661    0.0000 C   0  0  0  0  0  0  0  0  0  0  0  0
   16.5196   -5.4312    0.0000 O   0  0  0  0  0  0  0  0  0  0  0  0
   15.4156   -4.2050    0.0000 O   0  0  0  0  0  0  0  0  0  0  0  0
   13.9568   -5.6673    0.0000 C   0  0  0  0  0  0  0  0  0  0  0  0
   13.1722   -5.4123    0.0000 C   0  0  0  0  0  0  0  0  0  0  0  0
   12.5591   -5.9644    0.0000 Cl  0  0  0  0  0  0  0  0  0  0  0  0
   13.0006   -4.6054    0.0000 C   0  0  0  0  0  0  0  0  0  0  0  0
   13.9173   -1.1651    0.0000 C   0  0  0  0  0  0  0  0  0  0  0  0
   14.7378   -1.0789    0.0000 C   0  0  0  0  0  0  0  0  0  0  0  0
   13.4324   -0.4977    0.0000 C   0  0  0  0  0  0  0  0  0  0  0  0
  1  2  1  0  0  0  0
  2  3  1  0  0  0  0
  3  4  2  0  0  0  0
  3  5  1  0  0  0  0
  5  6  1  0  0  0  0
  6  7  1  1  0  0  0
  6  8  1  0  0  0  0
  8  9  1  0  0  0  0
  9 10  1  0  0  0  0
 10 11  4  0  0  0  0
 11 12  4  0  0  0  0
 12 13  4  0  0  0  0
 13 14  4  0  0  0  0
 14 15  4  0  0  0  0
 10 15  4  0  0  0  0
 12 16  1  0  0  0  0
 16 17  4  0  0  0  0
 17 18  4  0  0  0  0
 18 19  4  0  0  0  0
 19 20  4  0  0  0  0
 16 20  4  0  0  0  0
 20 21  1  0  0  0  0
 21 22  4  0  0  0  0
 22 23  1  0  0  0  0
 22 24  4  0  0  0  0
 24 25  1  0  0  0  0
 25 26  1  0  0  0  0
 26 27  1  0  0  0  0
 26 28  2  0  0  0  0
 26 29  2  0  0  0  0
 24 30  4  0  0  0  0
 30 31  4  0  0  0  0
 31 32  1  0  0  0  0
 31 33  4  0  0  0  0
 21 33  4  0  0  0  0
 18 34  1  0  0  0  0
 34 35  1  0  0  0  0
 34 36  1  0  0  0  0
M  END
>  <ID>
5289

>  <PREFERRED_NAME>
encorafenib

>  <CAS_RN>
1269440-17-6

>  <SYNONYMS>
encorafenib
braftovi
NVP-LGX818-NXA

>  <URL>
http://drugcentral.org/drugcard/5289/view

$$$$
