enprostil
  -INDIGO-06102310592D

 29 30  0  0  1  0  0  0  0  0999 V2000
   -0.4226   -9.5745    0.0000 C   0  0  0  0  0  0  0  0  0  0  0  0
    0.2919   -9.1620    0.0000 O   0  0  0  0  0  0  0  0  0  0  0  0
    1.0063   -9.5745    0.0000 C   0  0  0  0  0  0  0  0  0  0  0  0
    1.0063  -10.3995    0.0000 O   0  0  0  0  0  0  0  0  0  0  0  0
    1.7208   -9.1620    0.0000 C   0  0  0  0  0  0  0  0  0  0  0  0
    2.4353   -9.5745    0.0000 C   0  0  0  0  0  0  0  0  0  0  0  0
    3.1497   -9.1620    0.0000 C   0  0  0  0  0  0  0  0  0  0  0  0
    3.8642   -9.5745    0.0000 C   0  0  0  0  0  0  0  0  0  0  0  0
    4.5787   -9.9870    0.0000 C   0  0  0  0  0  0  0  0  0  0  0  0
    5.2931   -9.5745    0.0000 C   0  0  0  0  0  0  0  0  0  0  0  0
    6.0076   -9.9870    0.0000 C   0  0  1  0  0  0  0  0  0  0  0  0
    6.7613   -9.6515    0.0000 C   0  0  2  0  0  0  0  0  0  0  0  0
    6.9328   -8.8445    0.0000 C   0  0  0  0  0  0  0  0  0  0  0  0
    7.7174   -8.5896    0.0000 C   0  0  0  0  0  0  0  0  0  0  0  0
    7.8890   -7.7826    0.0000 C   0  0  2  0  0  0  0  0  0  0  0  0
    7.2759   -7.2306    0.0000 O   0  0  0  0  0  0  0  0  0  0  0  0
    8.6736   -7.5276    0.0000 C   0  0  0  0  0  0  0  0  0  0  0  0
    8.8451   -6.7207    0.0000 O   0  0  0  0  0  0  0  0  0  0  0  0
    9.6297   -6.4657    0.0000 C   0  0  0  0  0  0  0  0  0  0  0  0
    9.8013   -5.6588    0.0000 C   0  0  0  0  0  0  0  0  0  0  0  0
   10.5859   -5.4038    0.0000 C   0  0  0  0  0  0  0  0  0  0  0  0
   11.1990   -5.9559    0.0000 C   0  0  0  0  0  0  0  0  0  0  0  0
   11.0275   -6.7628    0.0000 C   0  0  0  0  0  0  0  0  0  0  0  0
   10.2428   -7.0178    0.0000 C   0  0  0  0  0  0  0  0  0  0  0  0
    7.3133  -10.2646    0.0000 C   0  0  1  0  0  0  0  0  0  0  0  0
    8.1338  -10.1783    0.0000 O   0  0  0  0  0  0  0  0  0  0  0  0
    6.9008  -10.9790    0.0000 C   0  0  0  0  0  0  0  0  0  0  0  0
    6.0939  -10.8075    0.0000 C   0  0  0  0  0  0  0  0  0  0  0  0
    5.4808  -11.3595    0.0000 O   0  0  0  0  0  0  0  0  0  0  0  0
  1  2  1  0  0  0  0
  2  3  1  0  0  0  0
  3  4  2  0  0  0  0
  3  5  1  0  0  0  0
  5  6  1  0  0  0  0
  6  7  1  0  0  0  0
  7  8  2  0  0  0  0
  8  9  2  0  0  0  0
  9 10  1  0  0  0  0
 11 10  1  1  0  0  0
 11 12  1  0  0  0  0
 12 13  1  6  0  0  0
 13 14  2  0  0  0  0
 14 15  1  0  0  0  0
 15 16  1  6  0  0  0
 15 17  1  0  0  0  0
 17 18  1  0  0  0  0
 18 19  1  0  0  0  0
 19 20  4  0  0  0  0
 20 21  4  0  0  0  0
 21 22  4  0  0  0  0
 22 23  4  0  0  0  0
 23 24  4  0  0  0  0
 19 24  4  0  0  0  0
 12 25  1  0  0  0  0
 25 26  1  1  0  0  0
 25 27  1  0  0  0  0
 27 28  1  0  0  0  0
 11 28  1  0  0  0  0
 28 29  2  0  0  0  0
M  END
>  <ID>
1016

>  <PREFERRED_NAME>
enprostil

>  <CAS_RN>
73121-56-9

>  <SYNONYMS>
enprostil
RS-84135
RS84135
camleed
fundyl
gardrin
gardrine

>  <URL>
http://drugcentral.org/drugcard/1016/view

$$$$
