enzacamene
  -INDIGO-06102311112D

 19 21  0  0  0  0  0  0  0  0999 V2000
   -0.7549   -3.7122    0.0000 C   0  0  0  0  0  0  0  0  0  0  0  0
   -0.7414   -2.8873    0.0000 C   0  0  0  0  0  0  0  0  0  0  0  0
   -1.4491   -2.4632    0.0000 C   0  0  0  0  0  0  0  0  0  0  0  0
   -1.4356   -1.6383    0.0000 C   0  0  0  0  0  0  0  0  0  0  0  0
   -0.7145   -1.2375    0.0000 C   0  0  0  0  0  0  0  0  0  0  0  0
   -0.7017   -0.4574    0.0000 C   0  0  0  0  0  0  0  0  0  0  0  0
    0.0825   -0.0825    0.0000 C   0  0  0  0  0  0  0  0  0  0  0  0
    0.7145   -0.4125    0.0000 C   0  0  0  0  0  0  0  0  0  0  0  0
    1.4289    0.0000    0.0000 C   0  0  0  0  0  0  0  0  0  0  0  0
    1.4289    0.8250    0.0000 C   0  0  0  0  0  0  0  0  0  0  0  0
    0.7145    1.2375    0.0000 C   0  0  0  0  0  0  0  0  0  0  0  0
    0.7476    2.0997    0.0000 C   0  0  0  0  0  0  0  0  0  0  0  0
    0.0825    0.9075    0.0000 C   0  0  0  0  0  0  0  0  0  0  0  0
   -0.5122    1.5996    0.0000 O   0  0  0  0  0  0  0  0  0  0  0  0
    0.5082    0.4125    0.0000 C   0  0  0  0  0  0  0  0  0  0  0  0
   -0.4419    0.7757    0.0000 C   0  0  0  0  0  0  0  0  0  0  0  0
   -0.4889    0.0983    0.0000 C   0  0  0  0  0  0  0  0  0  0  0  0
   -0.0068   -1.6616    0.0000 C   0  0  0  0  0  0  0  0  0  0  0  0
   -0.0203   -2.4865    0.0000 C   0  0  0  0  0  0  0  0  0  0  0  0
  1  2  1  0  0  0  0
  2  3  4  0  0  0  0
  3  4  4  0  0  0  0
  4  5  4  0  0  0  0
  5  6  1  0  0  0  0
  6  7  2  0  0  0  0
  7  8  1  0  0  0  0
  8  9  1  0  0  0  0
  9 10  1  0  0  0  0
 10 11  1  0  0  0  0
 11 12  1  0  0  0  0
 11 13  1  0  0  0  0
  7 13  1  0  0  0  0
 13 14  2  0  0  0  0
 11 15  1  0  0  0  0
  8 15  1  0  0  0  0
 15 16  1  0  0  0  0
 15 17  1  0  0  0  0
  5 18  4  0  0  0  0
 18 19  4  0  0  0  0
  2 19  4  0  0  0  0
M  END
>  <ID>
4292

>  <PREFERRED_NAME>
enzacamene

>  <CAS_RN>
36861-47-9

>  <SYNONYMS>
enzacamene
methylbenzylidenecam
4-Methylbenzylidenecamphor
p-Methylbenzylidenecamphor

>  <URL>
http://drugcentral.org/drugcard/4292/view

$$$$
