epoprostenol
  -INDIGO-06102310592D

 25 26  0  0  1  0  0  0  0  0999 V2000
    6.2705    1.5031    0.0000 C   0  0  0  0  0  0  0  0  0  0  0  0
    6.9849    1.0906    0.0000 C   0  0  0  0  0  0  0  0  0  0  0  0
    7.6994    1.5031    0.0000 C   0  0  0  0  0  0  0  0  0  0  0  0
    8.4139    1.0906    0.0000 C   0  0  0  0  0  0  0  0  0  0  0  0
    9.1284    1.5031    0.0000 C   0  0  0  0  0  0  0  0  0  0  0  0
    9.8428    1.0906    0.0000 C   0  0  2  0  0  0  0  0  0  0  0  0
    9.8428    0.2656    0.0000 O   0  0  0  0  0  0  0  0  0  0  0  0
   10.5573    1.5031    0.0000 C   0  0  0  0  0  0  0  0  0  0  0  0
   11.2718    1.0906    0.0000 C   0  0  0  0  0  0  0  0  0  0  0  0
   11.9862    1.5031    0.0000 C   0  0  1  0  0  0  0  0  0  0  0  0
   12.0725    2.3236    0.0000 C   0  0  2  0  0  0  0  0  0  0  0  0
   11.4594    2.8756    0.0000 O   0  0  0  0  0  0  0  0  0  0  0  0
   12.8795    2.4951    0.0000 C   0  0  0  0  0  0  0  0  0  0  0  0
   13.2920    1.7806    0.0000 C   0  0  2  0  0  0  0  0  0  0  0  0
   14.0456    1.4451    0.0000 O   0  0  0  0  0  0  0  0  0  0  0  0
   13.9594    0.6246    0.0000 C   0  0  0  0  0  0  0  0  0  0  0  0
   13.1524    0.4531    0.0000 C   0  0  0  0  0  0  0  0  0  0  0  0
   12.7399    1.1675    0.0000 C   0  0  2  0  0  0  0  0  0  0  0  0
   14.5725    0.0725    0.0000 C   0  0  0  0  0  0  0  0  0  0  0  0
   15.3571    0.3275    0.0000 C   0  0  0  0  0  0  0  0  0  0  0  0
   15.9702   -0.2245    0.0000 C   0  0  0  0  0  0  0  0  0  0  0  0
   16.7548    0.0304    0.0000 C   0  0  0  0  0  0  0  0  0  0  0  0
   17.3679   -0.5216    0.0000 C   0  0  0  0  0  0  0  0  0  0  0  0
   18.1525   -0.2667    0.0000 O   0  0  0  0  0  0  0  0  0  0  0  0
   17.1964   -1.3286    0.0000 O   0  0  0  0  0  0  0  0  0  0  0  0
  1  2  1  0  0  0  0
  2  3  1  0  0  0  0
  3  4  1  0  0  0  0
  4  5  1  0  0  0  0
  5  6  1  0  0  0  0
  6  7  1  1  0  0  0
  6  8  1  0  0  0  0
  8  9  2  0  0  0  0
 10  9  1  1  0  0  0
 10 11  1  0  0  0  0
 11 12  1  6  0  0  0
 11 13  1  0  0  0  0
 13 14  1  0  0  0  0
 14 15  1  6  0  0  0
 15 16  1  0  0  0  0
 16 17  1  0  0  0  0
 18 17  1  6  0  0  0
 10 18  1  0  0  0  0
 14 18  1  0  0  0  0
 16 19  2  0  0  0  0
 19 20  1  0  0  0  0
 20 21  1  0  0  0  0
 21 22  1  0  0  0  0
 22 23  1  0  0  0  0
 23 24  1  0  0  0  0
 23 25  2  0  0  0  0
M  END
>  <ID>
1034

>  <PREFERRED_NAME>
epoprostenol

>  <CAS_RN>
35121-78-9

>  <SYNONYMS>
epoprostenol
epoprostenol sodium
prostacyclin
vasocyclin
Prostaglandin I2

>  <URL>
http://drugcentral.org/drugcard/1034/view

$$$$
