eprosartan
  -INDIGO-06102310592D

 30 32  0  0  0  0  0  0  0  0999 V2000
    4.1801   -0.0616    0.0000 C   0  0  0  0  0  0  0  0  0  0  0  0
    3.4656   -0.4741    0.0000 C   0  0  0  0  0  0  0  0  0  0  0  0
    2.7512   -0.0616    0.0000 C   0  0  0  0  0  0  0  0  0  0  0  0
    2.0367   -0.4741    0.0000 C   0  0  0  0  0  0  0  0  0  0  0  0
    2.0367   -1.2991    0.0000 C   0  0  0  0  0  0  0  0  0  0  0  0
    2.7041   -1.7840    0.0000 N   0  0  0  0  0  0  0  0  0  0  0  0
    2.4492   -2.5687    0.0000 C   0  0  0  0  0  0  0  0  0  0  0  0
    1.6242   -2.5687    0.0000 C   0  0  0  0  0  0  0  0  0  0  0  0
    1.1393   -3.2361    0.0000 C   0  0  0  0  0  0  0  0  0  0  0  0
    1.4748   -3.9898    0.0000 C   0  0  0  0  0  0  0  0  0  0  0  0
    2.2953   -4.0760    0.0000 C   0  0  0  0  0  0  0  0  0  0  0  0
    2.6309   -4.8297    0.0000 C   0  0  0  0  0  0  0  0  0  0  0  0
    3.4379   -5.0012    0.0000 C   0  0  0  0  0  0  0  0  0  0  0  0
    3.5241   -5.8217    0.0000 C   0  0  0  0  0  0  0  0  0  0  0  0
    2.7704   -6.1572    0.0000 C   0  0  0  0  0  0  0  0  0  0  0  0
    2.2184   -5.5441    0.0000 S   0  0  0  0  0  0  0  0  0  0  0  0
    0.9899   -4.6572    0.0000 C   0  0  0  0  0  0  0  0  0  0  0  0
    1.3255   -5.4109    0.0000 O   0  0  0  0  0  0  0  0  0  0  0  0
    0.1694   -4.5710    0.0000 O   0  0  0  0  0  0  0  0  0  0  0  0
    1.3693   -1.7840    0.0000 N   0  0  0  0  0  0  0  0  0  0  0  0
    0.5846   -1.5291    0.0000 C   0  0  0  0  0  0  0  0  0  0  0  0
    0.4131   -0.7221    0.0000 C   0  0  0  0  0  0  0  0  0  0  0  0
   -0.3715   -0.4672    0.0000 C   0  0  0  0  0  0  0  0  0  0  0  0
   -0.5430    0.3398    0.0000 C   0  0  0  0  0  0  0  0  0  0  0  0
    0.0701    0.8918    0.0000 C   0  0  0  0  0  0  0  0  0  0  0  0
    0.8547    0.6369    0.0000 C   0  0  0  0  0  0  0  0  0  0  0  0
    1.0262   -0.1701    0.0000 C   0  0  0  0  0  0  0  0  0  0  0  0
   -0.1015    1.6988    0.0000 C   0  0  0  0  0  0  0  0  0  0  0  0
   -0.8861    1.9537    0.0000 O   0  0  0  0  0  0  0  0  0  0  0  0
    0.5116    2.2508    0.0000 O   0  0  0  0  0  0  0  0  0  0  0  0
  1  2  1  0  0  0  0
  2  3  1  0  0  0  0
  3  4  1  0  0  0  0
  4  5  1  0  0  0  0
  5  6  4  0  0  0  0
  6  7  4  0  0  0  0
  7  8  4  0  0  0  0
  8  9  1  0  0  0  0
  9 10  2  0  0  0  0
 10 11  1  0  0  0  0
 11 12  1  0  0  0  0
 12 13  4  0  0  0  0
 13 14  4  0  0  0  0
 14 15  4  0  0  0  0
 15 16  4  0  0  0  0
 12 16  4  0  0  0  0
 10 17  1  0  0  0  0
 17 18  1  0  0  0  0
 17 19  2  0  0  0  0
  8 20  4  0  0  0  0
  5 20  4  0  0  0  0
 20 21  1  0  0  0  0
 21 22  1  0  0  0  0
 22 23  4  0  0  0  0
 23 24  4  0  0  0  0
 24 25  4  0  0  0  0
 25 26  4  0  0  0  0
 26 27  4  0  0  0  0
 22 27  4  0  0  0  0
 25 28  1  0  0  0  0
 28 29  1  0  0  0  0
 28 30  2  0  0  0  0
M  END
>  <ID>
1037

>  <PREFERRED_NAME>
eprosartan

>  <CAS_RN>
133040-01-4

>  <SYNONYMS>
eprosartan
SKF-108566
eprosartan mesylate
eprosartan mesilate

>  <URL>
http://drugcentral.org/drugcard/1037/view

$$$$
