ertapenem
  -INDIGO-06102310592D

 33 36  0  0  1  0  0  0  0  0999 V2000
   -0.4319    0.6187    0.0000 C   0  0  0  0  0  0  0  0  0  0  0  0
    0.3649    0.8322    0.0000 C   0  0  1  0  0  0  0  0  0  0  0  0
    0.5785    1.6291    0.0000 O   0  0  0  0  0  0  0  0  0  0  0  0
    0.9483    0.2488    0.0000 C   0  0  2  0  0  0  0  0  0  0  0  0
    1.7733    0.2488    0.0000 C   0  0  1  0  0  0  0  0  0  0  0  0
    2.5579    0.5038    0.0000 C   0  0  1  0  0  0  0  0  0  0  0  0
    2.8129    1.2884    0.0000 C   0  0  0  0  0  0  0  0  0  0  0  0
    3.0428   -0.1637    0.0000 C   0  0  0  0  0  0  0  0  0  0  0  0
    3.8678   -0.1637    0.0000 S   0  0  0  0  0  0  0  0  0  0  0  0
    4.2803    0.5508    0.0000 C   0  0  2  0  0  0  0  0  0  0  0  0
    3.9448    1.3045    0.0000 C   0  0  0  0  0  0  0  0  0  0  0  0
    4.5579    1.8565    0.0000 N   0  0  0  0  0  0  0  0  0  0  0  0
    5.2724    1.4440    0.0000 C   0  0  1  0  0  0  0  0  0  0  0  0
    5.1008    0.6370    0.0000 C   0  0  0  0  0  0  0  0  0  0  0  0
    6.0260    1.7796    0.0000 C   0  0  0  0  0  0  0  0  0  0  0  0
    6.6935    1.2946    0.0000 O   0  0  0  0  0  0  0  0  0  0  0  0
    6.1123    2.6000    0.0000 N   0  0  0  0  0  0  0  0  0  0  0  0
    6.8659    2.9356    0.0000 C   0  0  0  0  0  0  0  0  0  0  0  0
    6.9522    3.7561    0.0000 C   0  0  0  0  0  0  0  0  0  0  0  0
    7.7059    4.0916    0.0000 C   0  0  0  0  0  0  0  0  0  0  0  0
    8.3733    3.6067    0.0000 C   0  0  0  0  0  0  0  0  0  0  0  0
    8.2871    2.7862    0.0000 C   0  0  0  0  0  0  0  0  0  0  0  0
    7.5334    2.4507    0.0000 C   0  0  0  0  0  0  0  0  0  0  0  0
    7.7921    4.9121    0.0000 C   0  0  0  0  0  0  0  0  0  0  0  0
    8.5458    5.2477    0.0000 O   0  0  0  0  0  0  0  0  0  0  0  0
    7.1246    5.3970    0.0000 O   0  0  0  0  0  0  0  0  0  0  0  0
    2.5579   -0.8311    0.0000 C   0  0  0  0  0  0  0  0  0  0  0  0
    1.7733   -0.5762    0.0000 N   0  0  0  0  0  0  0  0  0  0  0  0
    0.9483   -0.5762    0.0000 C   0  0  0  0  0  0  0  0  0  0  0  0
    0.3649   -1.1595    0.0000 O   0  0  0  0  0  0  0  0  0  0  0  0
    2.8129   -1.6157    0.0000 C   0  0  0  0  0  0  0  0  0  0  0  0
    2.2608   -2.2288    0.0000 O   0  0  0  0  0  0  0  0  0  0  0  0
    3.6198   -1.7873    0.0000 O   0  0  0  0  0  0  0  0  0  0  0  0
  1  2  1  0  0  0  0
  2  3  1  1  0  0  0
  4  2  1  6  0  0  0
  4  5  1  0  0  0  0
  5  6  1  0  0  0  0
  6  7  1  1  0  0  0
  6  8  1  0  0  0  0
  8  9  1  0  0  0  0
 10  9  1  6  0  0  0
 10 11  1  0  0  0  0
 11 12  1  0  0  0  0
 12 13  1  0  0  0  0
 13 14  1  0  0  0  0
 10 14  1  0  0  0  0
 13 15  1  6  0  0  0
 15 16  2  0  0  0  0
 15 17  1  0  0  0  0
 17 18  1  0  0  0  0
 18 19  4  0  0  0  0
 19 20  4  0  0  0  0
 20 21  4  0  0  0  0
 21 22  4  0  0  0  0
 22 23  4  0  0  0  0
 18 23  4  0  0  0  0
 20 24  1  0  0  0  0
 24 25  1  0  0  0  0
 24 26  2  0  0  0  0
  8 27  2  0  0  0  0
 27 28  1  0  0  0  0
  5 28  1  1  0  0  0
 28 29  1  0  0  0  0
  4 29  1  0  0  0  0
 29 30  2  0  0  0  0
 27 31  1  0  0  0  0
 31 32  1  0  0  0  0
 31 33  2  0  0  0  0
M  END
>  <ID>
1046

>  <PREFERRED_NAME>
ertapenem

>  <CAS_RN>
153832-46-3

>  <SYNONYMS>
ertapenem
invanz
ertapenem sodium

>  <URL>
http://drugcentral.org/drugcard/1046/view

$$$$
