escitalopram
  -INDIGO-06102310592D

 24 26  0  0  1  0  0  0  0  0999 V2000
   -3.8324    0.6966    0.0000 C   0  0  0  0  0  0  0  0  0  0  0  0
   -3.1179    0.2841    0.0000 N   0  0  0  0  0  0  0  0  0  0  0  0
   -3.1179   -0.5409    0.0000 C   0  0  0  0  0  0  0  0  0  0  0  0
   -2.4034    0.6966    0.0000 C   0  0  0  0  0  0  0  0  0  0  0  0
   -1.6889    0.2841    0.0000 C   0  0  0  0  0  0  0  0  0  0  0  0
   -0.9745    0.6966    0.0000 C   0  0  0  0  0  0  0  0  0  0  0  0
   -0.2600    0.2841    0.0000 C   0  0  1  0  0  0  0  0  0  0  0  0
    0.3531   -0.2679    0.0000 O   0  0  0  0  0  0  0  0  0  0  0  0
    1.0676    0.1446    0.0000 C   0  0  0  0  0  0  0  0  0  0  0  0
    0.8960    0.9515    0.0000 C   0  0  0  0  0  0  0  0  0  0  0  0
    0.0755    1.0378    0.0000 C   0  0  0  0  0  0  0  0  0  0  0  0
   -0.2600    1.7915    0.0000 C   0  0  0  0  0  0  0  0  0  0  0  0
    0.2249    2.4589    0.0000 C   0  0  0  0  0  0  0  0  0  0  0  0
    1.0454    2.3727    0.0000 C   0  0  0  0  0  0  0  0  0  0  0  0
    1.3810    1.6190    0.0000 C   0  0  0  0  0  0  0  0  0  0  0  0
    1.5303    3.0401    0.0000 C   0  0  0  0  0  0  0  0  0  0  0  0
    2.0152    3.7075    0.0000 N   0  0  0  0  0  0  0  0  0  0  0  0
   -0.7449   -0.3833    0.0000 C   0  0  0  0  0  0  0  0  0  0  0  0
   -0.4094   -1.1370    0.0000 C   0  0  0  0  0  0  0  0  0  0  0  0
   -0.8943   -1.8044    0.0000 C   0  0  0  0  0  0  0  0  0  0  0  0
   -1.7148   -1.7182    0.0000 C   0  0  0  0  0  0  0  0  0  0  0  0
   -2.1997   -2.3856    0.0000 F   0  0  0  0  0  0  0  0  0  0  0  0
   -2.0503   -0.9645    0.0000 C   0  0  0  0  0  0  0  0  0  0  0  0
   -1.5654   -0.2971    0.0000 C   0  0  0  0  0  0  0  0  0  0  0  0
  1  2  1  0  0  0  0
  2  3  1  0  0  0  0
  2  4  1  0  0  0  0
  4  5  1  0  0  0  0
  5  6  1  0  0  0  0
  7  6  1  6  0  0  0
  7  8  1  0  0  0  0
  8  9  1  0  0  0  0
  9 10  1  0  0  0  0
 10 11  4  0  0  0  0
  7 11  1  0  0  0  0
 11 12  4  0  0  0  0
 12 13  4  0  0  0  0
 13 14  4  0  0  0  0
 14 15  4  0  0  0  0
 10 15  4  0  0  0  0
 14 16  1  0  0  0  0
 16 17  3  0  0  0  0
  7 18  1  1  0  0  0
 18 19  4  0  0  0  0
 19 20  4  0  0  0  0
 20 21  4  0  0  0  0
 21 22  1  0  0  0  0
 21 23  4  0  0  0  0
 23 24  4  0  0  0  0
 18 24  4  0  0  0  0
M  END
>  <ID>
1053

>  <PREFERRED_NAME>
escitalopram

>  <CAS_RN>
128196-01-0

>  <SYNONYMS>
escitalopram
(+)-(S)-Citalopram
(+)-Citalopram
(S)-Citalopram
S-(+)-Citalopram
seroplex
escitalopram oxalate

>  <URL>
http://drugcentral.org/drugcard/1053/view

$$$$
