eseridine
  -INDIGO-06102311092D

 21 23  0  0  1  0  0  0  0  0999 V2000
    6.4235    1.9087    0.0000 C   0  0  0  0  0  0  0  0  0  0  0  0
    5.6165    2.0803    0.0000 N   0  0  0  0  0  0  0  0  0  0  0  0
    5.0645    1.4672    0.0000 C   0  0  0  0  0  0  0  0  0  0  0  0
    5.3194    0.6825    0.0000 O   0  0  0  0  0  0  0  0  0  0  0  0
    4.2575    1.6387    0.0000 O   0  0  0  0  0  0  0  0  0  0  0  0
    3.7054    1.0256    0.0000 C   0  0  0  0  0  0  0  0  0  0  0  0
    2.8985    1.1971    0.0000 C   0  0  0  0  0  0  0  0  0  0  0  0
    2.3464    0.5840    0.0000 C   0  0  0  0  0  0  0  0  0  0  0  0
    2.6014   -0.2006    0.0000 C   0  0  0  0  0  0  0  0  0  0  0  0
    3.4084   -0.3721    0.0000 C   0  0  0  0  0  0  0  0  0  0  0  0
    3.9604    0.2410    0.0000 C   0  0  0  0  0  0  0  0  0  0  0  0
    1.9339   -0.6855    0.0000 N   0  0  0  0  0  0  0  0  0  0  0  0
    1.9339   -1.5105    0.0000 C   0  0  0  0  0  0  0  0  0  0  0  0
    1.2665   -0.2006    0.0000 C   0  0  1  0  0  0  0  0  0  0  0  0
    0.4595   -0.3721    0.0000 O   0  0  0  0  0  0  0  0  0  0  0  0
   -0.0925    0.2410    0.0000 N   0  0  0  0  0  0  0  0  0  0  0  0
   -0.8995    0.0694    0.0000 C   0  0  0  0  0  0  0  0  0  0  0  0
    0.1624    1.0256    0.0000 C   0  0  0  0  0  0  0  0  0  0  0  0
    0.9694    1.1971    0.0000 C   0  0  0  0  0  0  0  0  0  0  0  0
    1.5214    0.5840    0.0000 C   0  0  1  0  0  0  0  0  0  0  0  0
    1.8570    1.3377    0.0000 C   0  0  0  0  0  0  0  0  0  0  0  0
  1  2  1  0  0  0  0
  2  3  1  0  0  0  0
  3  4  2  0  0  0  0
  3  5  1  0  0  0  0
  5  6  1  0  0  0  0
  6  7  4  0  0  0  0
  7  8  4  0  0  0  0
  8  9  4  0  0  0  0
  9 10  4  0  0  0  0
 10 11  4  0  0  0  0
  6 11  4  0  0  0  0
  9 12  1  0  0  0  0
 12 13  1  0  0  0  0
 14 12  1  1  0  0  0
 14 15  1  0  0  0  0
 15 16  1  0  0  0  0
 16 17  1  0  0  0  0
 16 18  1  0  0  0  0
 18 19  1  0  0  0  0
 19 20  1  0  0  0  0
  8 20  1  0  0  0  0
 14 20  1  0  0  0  0
 20 21  1  6  0  0  0
M  END
>  <ID>
3186

>  <PREFERRED_NAME>
eseridine

>  <CAS_RN>
25573-43-7

>  <SYNONYMS>
eseridine
eseridine tartrate
eseridine salicylate
eserine oxide salicylate
geneserine
eserine aminoxide
eserine oxide
physostigmine aminoxide

>  <URL>
http://drugcentral.org/drugcard/3186/view

$$$$
