estazolam
  -INDIGO-06102310592D

 21 24  0  0  0  0  0  0  0  0999 V2000
   -0.4338   -0.9371    0.0000 Cl  0  0  0  0  0  0  0  0  0  0  0  0
    0.3862   -1.0281    0.0000 C   0  0  0  0  0  0  0  0  0  0  0  0
    0.8750   -0.3635    0.0000 C   0  0  0  0  0  0  0  0  0  0  0  0
    1.6950   -0.4546    0.0000 C   0  0  0  0  0  0  0  0  0  0  0  0
    2.0261   -1.2102    0.0000 C   0  0  0  0  0  0  0  0  0  0  0  0
    2.8505   -1.1780    0.0000 N   0  0  0  0  0  0  0  0  0  0  0  0
    3.2778   -0.4722    0.0000 C   0  0  0  0  0  0  0  0  0  0  0  0
    4.0810   -0.6605    0.0000 N   0  0  0  0  0  0  0  0  0  0  0  0
    4.1501   -1.4826    0.0000 N   0  0  0  0  0  0  0  0  0  0  0  0
    3.3897   -1.8024    0.0000 C   0  0  0  0  0  0  0  0  0  0  0  0
    3.2376   -2.6133    0.0000 C   0  0  0  0  0  0  0  0  0  0  0  0
    2.5088   -3.0000    0.0000 N   0  0  0  0  0  0  0  0  0  0  0  0
    1.7521   -2.6713    0.0000 C   0  0  0  0  0  0  0  0  0  0  0  0
    1.1277   -3.2105    0.0000 C   0  0  0  0  0  0  0  0  0  0  0  0
    1.2824   -4.0208    0.0000 C   0  0  0  0  0  0  0  0  0  0  0  0
    0.6580   -4.5600    0.0000 C   0  0  0  0  0  0  0  0  0  0  0  0
   -0.1212   -4.2888    0.0000 C   0  0  0  0  0  0  0  0  0  0  0  0
   -0.2759   -3.4784    0.0000 C   0  0  0  0  0  0  0  0  0  0  0  0
    0.3485   -2.9393    0.0000 C   0  0  0  0  0  0  0  0  0  0  0  0
    1.5373   -1.8748    0.0000 C   0  0  0  0  0  0  0  0  0  0  0  0
    0.7173   -1.7837    0.0000 C   0  0  0  0  0  0  0  0  0  0  0  0
  1  2  1  0  0  0  0
  2  3  4  0  0  0  0
  3  4  4  0  0  0  0
  4  5  4  0  0  0  0
  5  6  1  0  0  0  0
  6  7  4  0  0  0  0
  7  8  4  0  0  0  0
  8  9  4  0  0  0  0
  9 10  4  0  0  0  0
  6 10  4  0  0  0  0
 10 11  1  0  0  0  0
 11 12  1  0  0  0  0
 12 13  2  0  0  0  0
 13 14  1  0  0  0  0
 14 15  4  0  0  0  0
 15 16  4  0  0  0  0
 16 17  4  0  0  0  0
 17 18  4  0  0  0  0
 18 19  4  0  0  0  0
 14 19  4  0  0  0  0
 13 20  1  0  0  0  0
  5 20  4  0  0  0  0
 20 21  4  0  0  0  0
  2 21  4  0  0  0  0
M  END
>  <ID>
1056

>  <PREFERRED_NAME>
estazolam

>  <CAS_RN>
29975-16-4

>  <SYNONYMS>
estazolam
tasedan

>  <URL>
http://drugcentral.org/drugcard/1056/view

$$$$
