estriol
  -INDIGO-06102311092D

 21 24  0  0  1  0  0  0  0  0999 V2000
   -2.0361   -0.6122    0.0000 C   0  0  0  0  0  0  0  0  0  0  0  0
   -1.6762   -1.3546    0.0000 C   0  0  2  0  0  0  0  0  0  0  0  0
   -1.1444   -0.7239    0.0000 C   0  0  0  0  0  0  0  0  0  0  0  0
   -0.3323   -0.8691    0.0000 C   0  0  0  0  0  0  0  0  0  0  0  0
   -0.0520   -1.6450    0.0000 C   0  0  1  0  0  0  0  0  0  0  0  0
   -0.5838   -2.2757    0.0000 C   0  0  1  0  0  0  0  0  0  0  0  0
   -0.3035   -3.0516    0.0000 C   0  0  0  0  0  0  0  0  0  0  0  0
    0.5086   -3.1969    0.0000 C   0  0  0  0  0  0  0  0  0  0  0  0
    1.0404   -2.5662    0.0000 C   0  0  0  0  0  0  0  0  0  0  0  0
    0.7601   -1.7902    0.0000 C   0  0  0  0  0  0  0  0  0  0  0  0
    1.2920   -1.1595    0.0000 C   0  0  0  0  0  0  0  0  0  0  0  0
    2.1041   -1.3047    0.0000 C   0  0  0  0  0  0  0  0  0  0  0  0
    2.3844   -2.0807    0.0000 C   0  0  0  0  0  0  0  0  0  0  0  0
    3.1965   -2.2259    0.0000 O   0  0  0  0  0  0  0  0  0  0  0  0
    1.8526   -2.7114    0.0000 C   0  0  0  0  0  0  0  0  0  0  0  0
   -1.3959   -2.1305    0.0000 C   0  0  2  0  0  0  0  0  0  0  0  0
   -2.0473   -2.6369    0.0000 C   0  0  0  0  0  0  0  0  0  0  0  0
   -2.7301   -2.1739    0.0000 C   0  0  1  0  0  0  0  0  0  0  0  0
   -3.5060   -2.4542    0.0000 O   0  0  0  0  0  0  0  0  0  0  0  0
   -2.5008   -1.3814    0.0000 C   0  0  2  0  0  0  0  0  0  0  0  0
   -3.0071   -0.7301    0.0000 O   0  0  0  0  0  0  0  0  0  0  0  0
  2  1  1  6  0  0  0
  2  3  1  0  0  0  0
  3  4  1  0  0  0  0
  5  4  1  6  0  0  0
  5  6  1  0  0  0  0
  6  7  1  1  0  0  0
  7  8  1  0  0  0  0
  8  9  1  0  0  0  0
  9 10  4  0  0  0  0
  5 10  1  0  0  0  0
 10 11  4  0  0  0  0
 11 12  4  0  0  0  0
 12 13  4  0  0  0  0
 13 14  1  0  0  0  0
 13 15  4  0  0  0  0
  9 15  4  0  0  0  0
  6 16  1  0  0  0  0
  2 16  1  0  0  0  0
 16 17  1  6  0  0  0
 17 18  1  0  0  0  0
 18 19  1  1  0  0  0
 18 20  1  0  0  0  0
  2 20  1  0  0  0  0
 20 21  1  6  0  0  0
M  END
>  <ID>
3187

>  <PREFERRED_NAME>
estriol

>  <CAS_RN>
50-27-1

>  <SYNONYMS>
estriol
destriol
estratriol
ovestrion

>  <URL>
http://drugcentral.org/drugcard/3187/view

$$$$
