estradiol undecylate
  -INDIGO-06102310592D

 32 35  0  0  1  0  0  0  0  0999 V2000
  -11.0730   -4.2383    0.0000 C   0  0  0  0  0  0  0  0  0  0  0  0
  -10.3585   -3.8258    0.0000 C   0  0  0  0  0  0  0  0  0  0  0  0
   -9.6440   -4.2383    0.0000 C   0  0  0  0  0  0  0  0  0  0  0  0
   -8.9296   -3.8258    0.0000 C   0  0  0  0  0  0  0  0  0  0  0  0
   -8.2151   -4.2383    0.0000 C   0  0  0  0  0  0  0  0  0  0  0  0
   -7.5006   -3.8258    0.0000 C   0  0  0  0  0  0  0  0  0  0  0  0
   -6.7861   -4.2383    0.0000 C   0  0  0  0  0  0  0  0  0  0  0  0
   -6.0717   -3.8258    0.0000 C   0  0  0  0  0  0  0  0  0  0  0  0
   -5.3572   -4.2383    0.0000 C   0  0  0  0  0  0  0  0  0  0  0  0
   -4.6427   -3.8258    0.0000 C   0  0  0  0  0  0  0  0  0  0  0  0
   -3.9283   -4.2383    0.0000 C   0  0  0  0  0  0  0  0  0  0  0  0
   -3.9283   -5.0633    0.0000 O   0  0  0  0  0  0  0  0  0  0  0  0
   -3.2138   -3.8258    0.0000 O   0  0  0  0  0  0  0  0  0  0  0  0
   -2.4993   -4.2383    0.0000 C   0  0  1  0  0  0  0  0  0  0  0  0
   -2.4131   -5.0588    0.0000 C   0  0  0  0  0  0  0  0  0  0  0  0
   -1.6061   -5.2303    0.0000 C   0  0  0  0  0  0  0  0  0  0  0  0
   -1.1936   -4.5159    0.0000 C   0  0  1  0  0  0  0  0  0  0  0  0
   -0.3866   -4.3444    0.0000 C   0  0  2  0  0  0  0  0  0  0  0  0
    0.1654   -4.9574    0.0000 C   0  0  0  0  0  0  0  0  0  0  0  0
    0.9724   -4.7859    0.0000 C   0  0  0  0  0  0  0  0  0  0  0  0
    1.2273   -4.0013    0.0000 C   0  0  0  0  0  0  0  0  0  0  0  0
    0.6753   -3.3882    0.0000 C   0  0  0  0  0  0  0  0  0  0  0  0
    0.9302   -2.6036    0.0000 C   0  0  0  0  0  0  0  0  0  0  0  0
    1.7372   -2.4321    0.0000 C   0  0  0  0  0  0  0  0  0  0  0  0
    2.2892   -3.0451    0.0000 C   0  0  0  0  0  0  0  0  0  0  0  0
    3.0962   -2.8736    0.0000 O   0  0  0  0  0  0  0  0  0  0  0  0
    2.0343   -3.8298    0.0000 C   0  0  0  0  0  0  0  0  0  0  0  0
   -0.1317   -3.5597    0.0000 C   0  0  1  0  0  0  0  0  0  0  0  0
   -0.6837   -2.9466    0.0000 C   0  0  0  0  0  0  0  0  0  0  0  0
   -1.4907   -3.1182    0.0000 C   0  0  0  0  0  0  0  0  0  0  0  0
   -1.7456   -3.9028    0.0000 C   0  0  2  0  0  0  0  0  0  0  0  0
   -2.3587   -3.3508    0.0000 C   0  0  0  0  0  0  0  0  0  0  0  0
  1  2  1  0  0  0  0
  2  3  1  0  0  0  0
  3  4  1  0  0  0  0
  4  5  1  0  0  0  0
  5  6  1  0  0  0  0
  6  7  1  0  0  0  0
  7  8  1  0  0  0  0
  8  9  1  0  0  0  0
  9 10  1  0  0  0  0
 10 11  1  0  0  0  0
 11 12  2  0  0  0  0
 11 13  1  0  0  0  0
 14 13  1  6  0  0  0
 14 15  1  0  0  0  0
 15 16  1  0  0  0  0
 17 16  1  6  0  0  0
 17 18  1  0  0  0  0
 18 19  1  1  0  0  0
 19 20  1  0  0  0  0
 20 21  1  0  0  0  0
 21 22  4  0  0  0  0
 22 23  4  0  0  0  0
 23 24  4  0  0  0  0
 24 25  4  0  0  0  0
 25 26  1  0  0  0  0
 25 27  4  0  0  0  0
 21 27  4  0  0  0  0
 28 22  1  6  0  0  0
 18 28  1  0  0  0  0
 28 29  1  0  0  0  0
 29 30  1  0  0  0  0
 30 31  1  0  0  0  0
 14 31  1  0  0  0  0
 17 31  1  0  0  0  0
 31 32  1  6  0  0  0
M  END
>  <ID>
1063

>  <PREFERRED_NAME>
estradiol undecylate

>  <CAS_RN>
3571-53-7

>  <SYNONYMS>
estradiol undecylate
oestradiol undecylate

>  <URL>
http://drugcentral.org/drugcard/1063/view

$$$$
