estradiol enanthate
  -INDIGO-06102310592D

 28 31  0  0  1  0  0  0  0  0999 V2000
   -8.3550   -3.3552    0.0000 C   0  0  0  0  0  0  0  0  0  0  0  0
   -7.6405   -2.9427    0.0000 C   0  0  0  0  0  0  0  0  0  0  0  0
   -6.9260   -3.3552    0.0000 C   0  0  0  0  0  0  0  0  0  0  0  0
   -6.2116   -2.9427    0.0000 C   0  0  0  0  0  0  0  0  0  0  0  0
   -5.4971   -3.3552    0.0000 C   0  0  0  0  0  0  0  0  0  0  0  0
   -4.7826   -2.9427    0.0000 C   0  0  0  0  0  0  0  0  0  0  0  0
   -4.0681   -3.3552    0.0000 C   0  0  0  0  0  0  0  0  0  0  0  0
   -4.0681   -4.1802    0.0000 O   0  0  0  0  0  0  0  0  0  0  0  0
   -3.3537   -2.9427    0.0000 O   0  0  0  0  0  0  0  0  0  0  0  0
   -2.6392   -3.3552    0.0000 C   0  0  1  0  0  0  0  0  0  0  0  0
   -2.5530   -4.1757    0.0000 C   0  0  0  0  0  0  0  0  0  0  0  0
   -1.7460   -4.3472    0.0000 C   0  0  0  0  0  0  0  0  0  0  0  0
   -1.3335   -3.6327    0.0000 C   0  0  1  0  0  0  0  0  0  0  0  0
   -0.5265   -3.4612    0.0000 C   0  0  2  0  0  0  0  0  0  0  0  0
    0.0255   -4.0743    0.0000 C   0  0  0  0  0  0  0  0  0  0  0  0
    0.8325   -3.9028    0.0000 C   0  0  0  0  0  0  0  0  0  0  0  0
    1.0874   -3.1182    0.0000 C   0  0  0  0  0  0  0  0  0  0  0  0
    0.5354   -2.5051    0.0000 C   0  0  0  0  0  0  0  0  0  0  0  0
    0.7903   -1.7204    0.0000 C   0  0  0  0  0  0  0  0  0  0  0  0
    1.5973   -1.5489    0.0000 C   0  0  0  0  0  0  0  0  0  0  0  0
    2.1493   -2.1620    0.0000 C   0  0  0  0  0  0  0  0  0  0  0  0
    2.9563   -1.9905    0.0000 O   0  0  0  0  0  0  0  0  0  0  0  0
    1.8944   -2.9466    0.0000 C   0  0  0  0  0  0  0  0  0  0  0  0
   -0.2716   -2.6766    0.0000 C   0  0  1  0  0  0  0  0  0  0  0  0
   -0.8236   -2.0635    0.0000 C   0  0  0  0  0  0  0  0  0  0  0  0
   -1.6306   -2.2350    0.0000 C   0  0  0  0  0  0  0  0  0  0  0  0
   -1.8855   -3.0196    0.0000 C   0  0  2  0  0  0  0  0  0  0  0  0
   -2.4986   -2.4676    0.0000 C   0  0  0  0  0  0  0  0  0  0  0  0
  1  2  1  0  0  0  0
  2  3  1  0  0  0  0
  3  4  1  0  0  0  0
  4  5  1  0  0  0  0
  5  6  1  0  0  0  0
  6  7  1  0  0  0  0
  7  8  2  0  0  0  0
  7  9  1  0  0  0  0
 10  9  1  6  0  0  0
 10 11  1  0  0  0  0
 11 12  1  0  0  0  0
 13 12  1  6  0  0  0
 13 14  1  0  0  0  0
 14 15  1  1  0  0  0
 15 16  1  0  0  0  0
 16 17  1  0  0  0  0
 17 18  4  0  0  0  0
 18 19  4  0  0  0  0
 19 20  4  0  0  0  0
 20 21  4  0  0  0  0
 21 22  1  0  0  0  0
 21 23  4  0  0  0  0
 17 23  4  0  0  0  0
 24 18  1  6  0  0  0
 14 24  1  0  0  0  0
 24 25  1  0  0  0  0
 25 26  1  0  0  0  0
 26 27  1  0  0  0  0
 10 27  1  0  0  0  0
 13 27  1  0  0  0  0
 27 28  1  6  0  0  0
M  END
>  <ID>
1061

>  <PREFERRED_NAME>
estradiol enanthate

>  <CAS_RN>
4956-37-0

>  <SYNONYMS>
estradiol enanthate

>  <URL>
http://drugcentral.org/drugcard/1061/view

$$$$
