etamiphylline
  -INDIGO-06102311092D

 20 21  0  0  0  0  0  0  0  0999 V2000
   -4.2080   -0.8221    0.0000 C   0  0  0  0  0  0  0  0  0  0  0  0
   -3.4935   -1.2346    0.0000 C   0  0  0  0  0  0  0  0  0  0  0  0
   -2.7791   -0.8221    0.0000 N   0  0  0  0  0  0  0  0  0  0  0  0
   -2.7791    0.0029    0.0000 C   0  0  0  0  0  0  0  0  0  0  0  0
   -2.0646    0.4154    0.0000 C   0  0  0  0  0  0  0  0  0  0  0  0
   -2.0646   -1.2346    0.0000 C   0  0  0  0  0  0  0  0  0  0  0  0
   -1.3501   -0.8221    0.0000 C   0  0  0  0  0  0  0  0  0  0  0  0
   -0.6357   -1.2346    0.0000 N   0  0  0  0  0  0  0  0  0  0  0  0
   -0.5494   -2.0551    0.0000 C   0  0  0  0  0  0  0  0  0  0  0  0
    0.2575   -2.2266    0.0000 N   0  0  0  0  0  0  0  0  0  0  0  0
    0.6700   -1.5121    0.0000 C   0  0  0  0  0  0  0  0  0  0  0  0
    0.1180   -0.8990    0.0000 C   0  0  0  0  0  0  0  0  0  0  0  0
    0.3730   -0.1144    0.0000 C   0  0  0  0  0  0  0  0  0  0  0  0
   -0.1791    0.4987    0.0000 O   0  0  0  0  0  0  0  0  0  0  0  0
    1.1799    0.0571    0.0000 N   0  0  0  0  0  0  0  0  0  0  0  0
    1.4349    0.8418    0.0000 C   0  0  0  0  0  0  0  0  0  0  0  0
    1.7320   -0.5560    0.0000 C   0  0  0  0  0  0  0  0  0  0  0  0
    2.5389   -0.3844    0.0000 O   0  0  0  0  0  0  0  0  0  0  0  0
    1.4770   -1.3406    0.0000 N   0  0  0  0  0  0  0  0  0  0  0  0
    2.0291   -1.9537    0.0000 C   0  0  0  0  0  0  0  0  0  0  0  0
  1  2  1  0  0  0  0
  2  3  1  0  0  0  0
  3  4  1  0  0  0  0
  4  5  1  0  0  0  0
  3  6  1  0  0  0  0
  6  7  1  0  0  0  0
  7  8  1  0  0  0  0
  8  9  4  0  0  0  0
  9 10  4  0  0  0  0
 10 11  4  0  0  0  0
 11 12  4  0  0  0  0
  8 12  4  0  0  0  0
 12 13  1  0  0  0  0
 13 14  2  0  0  0  0
 13 15  1  0  0  0  0
 15 16  1  0  0  0  0
 15 17  1  0  0  0  0
 17 18  2  0  0  0  0
 17 19  1  0  0  0  0
 11 19  1  0  0  0  0
 19 20  1  0  0  0  0
M  END
>  <ID>
3190

>  <PREFERRED_NAME>
etamiphylline

>  <CAS_RN>
314-35-2

>  <SYNONYMS>
etamiphylline
millophylline
etamiphylline camsilate
ethamicyclin
etamiphylline camsylate
etamiphylline camphorsulfonate
camphophylline
etamiphylline hydrochloride
etamiphylline HCl
etamiphyllin monohydrochloride
etamiphyllin
etaminophylline

>  <URL>
http://drugcentral.org/drugcard/3190/view

$$$$
