eterobarb
  -INDIGO-06102311092D

 23 24  0  0  0  0  0  0  0  0999 V2000
    0.9966    0.3627    0.0000 C   0  0  0  0  0  0  0  0  0  0  0  0
    0.7145   -0.4125    0.0000 C   0  0  0  0  0  0  0  0  0  0  0  0
    1.2448   -1.0445    0.0000 C   0  0  0  0  0  0  0  0  0  0  0  0
    1.9592   -1.4570    0.0000 C   0  0  0  0  0  0  0  0  0  0  0  0
    2.6737   -1.0445    0.0000 O   0  0  0  0  0  0  0  0  0  0  0  0
    1.9592   -2.2820    0.0000 N   0  0  0  0  0  0  0  0  0  0  0  0
    2.6737   -2.6945    0.0000 C   0  0  0  0  0  0  0  0  0  0  0  0
    2.6737   -3.5195    0.0000 O   0  0  0  0  0  0  0  0  0  0  0  0
    3.3882   -3.9320    0.0000 C   0  0  0  0  0  0  0  0  0  0  0  0
    1.2448   -2.6945    0.0000 C   0  0  0  0  0  0  0  0  0  0  0  0
    1.2448   -3.5195    0.0000 O   0  0  0  0  0  0  0  0  0  0  0  0
    0.5303   -2.2820    0.0000 N   0  0  0  0  0  0  0  0  0  0  0  0
   -0.1842   -2.6945    0.0000 C   0  0  0  0  0  0  0  0  0  0  0  0
   -0.1842   -3.5195    0.0000 O   0  0  0  0  0  0  0  0  0  0  0  0
   -0.8986   -3.9320    0.0000 C   0  0  0  0  0  0  0  0  0  0  0  0
    0.5303   -1.4570    0.0000 C   0  0  0  0  0  0  0  0  0  0  0  0
   -0.1842   -1.0445    0.0000 O   0  0  0  0  0  0  0  0  0  0  0  0
    1.7751   -0.4125    0.0000 C   0  0  0  0  0  0  0  0  0  0  0  0
    1.4929    0.3627    0.0000 C   0  0  0  0  0  0  0  0  0  0  0  0
    2.0232    0.9947    0.0000 C   0  0  0  0  0  0  0  0  0  0  0  0
    2.8357    0.8515    0.0000 C   0  0  0  0  0  0  0  0  0  0  0  0
    3.1178    0.0762    0.0000 C   0  0  0  0  0  0  0  0  0  0  0  0
    2.5875   -0.5558    0.0000 C   0  0  0  0  0  0  0  0  0  0  0  0
  1  2  1  0  0  0  0
  2  3  1  0  0  0  0
  3  4  1  0  0  0  0
  4  5  2  0  0  0  0
  4  6  1  0  0  0  0
  6  7  1  0  0  0  0
  7  8  1  0  0  0  0
  8  9  1  0  0  0  0
  6 10  1  0  0  0  0
 10 11  2  0  0  0  0
 10 12  1  0  0  0  0
 12 13  1  0  0  0  0
 13 14  1  0  0  0  0
 14 15  1  0  0  0  0
 12 16  1  0  0  0  0
  3 16  1  0  0  0  0
 16 17  2  0  0  0  0
  3 18  1  0  0  0  0
 18 19  4  0  0  0  0
 19 20  4  0  0  0  0
 20 21  4  0  0  0  0
 21 22  4  0  0  0  0
 22 23  4  0  0  0  0
 18 23  4  0  0  0  0
M  END
>  <ID>
3193

>  <PREFERRED_NAME>
eterobarb

>  <CAS_RN>
27511-99-5

>  <SYNONYMS>
eterobarb
eterobarbital

>  <URL>
http://drugcentral.org/drugcard/3193/view

$$$$
