etizolam
  -INDIGO-06102310592D

 23 26  0  0  0  0  0  0  0  0999 V2000
    3.2664   -0.2416    0.0000 C   0  0  0  0  0  0  0  0  0  0  0  0
    3.3894    0.5741    0.0000 C   0  0  0  0  0  0  0  0  0  0  0  0
    2.7444    1.0885    0.0000 C   0  0  0  0  0  0  0  0  0  0  0  0
    2.7814    1.9127    0.0000 C   0  0  0  0  0  0  0  0  0  0  0  0
    2.0090    2.2026    0.0000 C   0  0  0  0  0  0  0  0  0  0  0  0
    1.4946    1.5576    0.0000 C   0  0  0  0  0  0  0  0  0  0  0  0
    1.9491    0.8690    0.0000 S   0  0  0  0  0  0  0  0  0  0  0  0
    0.6696    1.5576    0.0000 N   0  0  0  0  0  0  0  0  0  0  0  0
    0.2151    0.8690    0.0000 C   0  0  0  0  0  0  0  0  0  0  0  0
    0.5050    0.0966    0.0000 C   0  0  0  0  0  0  0  0  0  0  0  0
   -0.5802    1.0885    0.0000 N   0  0  0  0  0  0  0  0  0  0  0  0
   -0.6172    1.9127    0.0000 N   0  0  0  0  0  0  0  0  0  0  0  0
    0.1552    2.2026    0.0000 C   0  0  0  0  0  0  0  0  0  0  0  0
    0.3388    3.0069    0.0000 C   0  0  0  0  0  0  0  0  0  0  0  0
    1.0821    3.3648    0.0000 N   0  0  0  0  0  0  0  0  0  0  0  0
    1.8254    3.0069    0.0000 C   0  0  0  0  0  0  0  0  0  0  0  0
    2.4704    3.5213    0.0000 C   0  0  0  0  0  0  0  0  0  0  0  0
    2.3474    4.3371    0.0000 C   0  0  0  0  0  0  0  0  0  0  0  0
    1.5795    4.6385    0.0000 Cl  0  0  0  0  0  0  0  0  0  0  0  0
    2.9925    4.8514    0.0000 C   0  0  0  0  0  0  0  0  0  0  0  0
    3.7604    4.5500    0.0000 C   0  0  0  0  0  0  0  0  0  0  0  0
    3.8834    3.7342    0.0000 C   0  0  0  0  0  0  0  0  0  0  0  0
    3.2384    3.2199    0.0000 C   0  0  0  0  0  0  0  0  0  0  0  0
  1  2  1  0  0  0  0
  2  3  1  0  0  0  0
  3  4  4  0  0  0  0
  4  5  4  0  0  0  0
  5  6  4  0  0  0  0
  6  7  4  0  0  0  0
  3  7  4  0  0  0  0
  6  8  1  0  0  0  0
  8  9  4  0  0  0  0
  9 10  1  0  0  0  0
  9 11  4  0  0  0  0
 11 12  4  0  0  0  0
 12 13  4  0  0  0  0
  8 13  4  0  0  0  0
 13 14  1  0  0  0  0
 14 15  1  0  0  0  0
 15 16  2  0  0  0  0
  5 16  1  0  0  0  0
 16 17  1  0  0  0  0
 17 18  4  0  0  0  0
 18 19  1  0  0  0  0
 18 20  4  0  0  0  0
 20 21  4  0  0  0  0
 21 22  4  0  0  0  0
 22 23  4  0  0  0  0
 17 23  4  0  0  0  0
M  END
>  <ID>
1102

>  <PREFERRED_NAME>
etizolam

>  <CAS_RN>
40054-69-1

>  <SYNONYMS>
etizolam
Y 7131
depas
AHR-3219
Y-7131

>  <URL>
http://drugcentral.org/drugcard/1102/view

$$$$
