famciclovir
  -INDIGO-06102311002D

 23 24  0  0  0  0  0  0  0  0999 V2000
   -4.9602   -1.0972    0.0000 C   0  0  0  0  0  0  0  0  0  0  0  0
   -4.6901   -1.8767    0.0000 C   0  0  0  0  0  0  0  0  0  0  0  0
   -5.2302   -2.5004    0.0000 O   0  0  0  0  0  0  0  0  0  0  0  0
   -3.8800   -2.0326    0.0000 O   0  0  0  0  0  0  0  0  0  0  0  0
   -3.6099   -2.8122    0.0000 C   0  0  0  0  0  0  0  0  0  0  0  0
   -2.7998   -2.9681    0.0000 C   0  0  0  0  0  0  0  0  0  0  0  0
   -2.5298   -3.7477    0.0000 C   0  0  0  0  0  0  0  0  0  0  0  0
   -1.7196   -3.9036    0.0000 C   0  0  0  0  0  0  0  0  0  0  0  0
   -1.4496   -4.6831    0.0000 N   0  0  0  0  0  0  0  0  0  0  0  0
   -1.9215   -5.3598    0.0000 C   0  0  0  0  0  0  0  0  0  0  0  0
   -1.4238   -6.0178    0.0000 N   0  0  0  0  0  0  0  0  0  0  0  0
   -0.6442   -5.7477    0.0000 C   0  0  0  0  0  0  0  0  0  0  0  0
   -0.6602   -4.9229    0.0000 C   0  0  0  0  0  0  0  0  0  0  0  0
    0.0462   -4.4966    0.0000 N   0  0  0  0  0  0  0  0  0  0  0  0
    0.7685   -4.8953    0.0000 C   0  0  0  0  0  0  0  0  0  0  0  0
    1.4749   -4.4690    0.0000 N   0  0  0  0  0  0  0  0  0  0  0  0
    0.7844   -5.7201    0.0000 N   0  0  0  0  0  0  0  0  0  0  0  0
    0.0781   -6.1463    0.0000 C   0  0  0  0  0  0  0  0  0  0  0  0
   -2.2597   -2.3445    0.0000 C   0  0  0  0  0  0  0  0  0  0  0  0
   -1.4496   -2.5004    0.0000 O   0  0  0  0  0  0  0  0  0  0  0  0
   -0.9095   -1.8767    0.0000 C   0  0  0  0  0  0  0  0  0  0  0  0
   -1.1795   -1.0972    0.0000 C   0  0  0  0  0  0  0  0  0  0  0  0
   -0.0993   -2.0326    0.0000 O   0  0  0  0  0  0  0  0  0  0  0  0
  1  2  1  0  0  0  0
  2  3  2  0  0  0  0
  2  4  1  0  0  0  0
  4  5  1  0  0  0  0
  5  6  1  0  0  0  0
  6  7  1  0  0  0  0
  7  8  1  0  0  0  0
  8  9  1  0  0  0  0
  9 10  4  0  0  0  0
 10 11  4  0  0  0  0
 11 12  4  0  0  0  0
 12 13  4  0  0  0  0
  9 13  4  0  0  0  0
 13 14  4  0  0  0  0
 14 15  4  0  0  0  0
 15 16  1  0  0  0  0
 15 17  4  0  0  0  0
 17 18  4  0  0  0  0
 12 18  4  0  0  0  0
  6 19  1  0  0  0  0
 19 20  1  0  0  0  0
 20 21  1  0  0  0  0
 21 22  1  0  0  0  0
 21 23  2  0  0  0  0
M  END
>  <ID>
1128

>  <PREFERRED_NAME>
famciclovir

>  <CAS_RN>
104227-87-4

>  <SYNONYMS>
famciclovir
famcivir
famcyclovir
famtrex
famvir

>  <URL>
http://drugcentral.org/drugcard/1128/view

$$$$
