famotidine
  -INDIGO-06102311002D

 20 20  0  0  0  0  0  0  0  0999 V2000
   -5.4417    1.3579    0.0000 N   0  0  0  0  0  0  0  0  0  0  0  0
   -4.6213    1.2717    0.0000 C   0  0  0  0  0  0  0  0  0  0  0  0
   -4.2857    0.5180    0.0000 N   0  0  0  0  0  0  0  0  0  0  0  0
   -4.1363    1.9391    0.0000 N   0  0  0  0  0  0  0  0  0  0  0  0
   -3.3159    1.8529    0.0000 C   0  0  0  0  0  0  0  0  0  0  0  0
   -2.7638    2.4660    0.0000 N   0  0  0  0  0  0  0  0  0  0  0  0
   -2.0101    2.1304    0.0000 C   0  0  0  0  0  0  0  0  0  0  0  0
   -1.2957    2.5429    0.0000 C   0  0  0  0  0  0  0  0  0  0  0  0
   -0.5812    2.1304    0.0000 S   0  0  0  0  0  0  0  0  0  0  0  0
    0.1333    2.5429    0.0000 C   0  0  0  0  0  0  0  0  0  0  0  0
    0.8477    2.1304    0.0000 C   0  0  0  0  0  0  0  0  0  0  0  0
    1.5622    2.5429    0.0000 C   0  0  0  0  0  0  0  0  0  0  0  0
    1.5622    3.3679    0.0000 N   0  0  0  0  0  0  0  0  0  0  0  0
    2.2767    2.1304    0.0000 N   0  0  0  0  0  0  0  0  0  0  0  0
    2.9912    2.5429    0.0000 S   0  0  0  0  0  0  0  0  0  0  0  0
    3.7056    2.9554    0.0000 N   0  0  0  0  0  0  0  0  0  0  0  0
    3.4037    1.8284    0.0000 O   0  0  0  0  0  0  0  0  0  0  0  0
    2.5787    3.2574    0.0000 O   0  0  0  0  0  0  0  0  0  0  0  0
   -2.0964    1.3099    0.0000 C   0  0  0  0  0  0  0  0  0  0  0  0
   -2.9034    1.1384    0.0000 S   0  0  0  0  0  0  0  0  0  0  0  0
  1  2  1  0  0  0  0
  2  3  2  0  0  0  0
  2  4  1  0  0  0  0
  4  5  1  0  0  0  0
  5  6  4  0  0  0  0
  6  7  4  0  0  0  0
  7  8  1  0  0  0  0
  8  9  1  0  0  0  0
  9 10  1  0  0  0  0
 10 11  1  0  0  0  0
 11 12  1  0  0  0  0
 12 13  2  0  0  0  0
 12 14  1  0  0  0  0
 14 15  1  0  0  0  0
 15 16  1  0  0  0  0
 15 17  2  0  0  0  0
 15 18  2  0  0  0  0
  7 19  4  0  0  0  0
 19 20  4  0  0  0  0
  5 20  4  0  0  0  0
M  END
>  <ID>
1129

>  <PREFERRED_NAME>
famotidine

>  <CAS_RN>
76824-35-6

>  <SYNONYMS>
famotidine
agufam
amfamox
antodine
apogastine
bestidine
brolin
cepal
digervin
dispromil

>  <URL>
http://drugcentral.org/drugcard/1129/view

$$$$
