famprofazone
  -INDIGO-06102311002D

 29 31  0  0  0  0  0  0  0  0999 V2000
   -0.5421   -0.5825    0.0000 C   0  0  0  0  0  0  0  0  0  0  0  0
   -0.3706   -1.3895    0.0000 C   0  0  0  0  0  0  0  0  0  0  0  0
    0.4141   -1.6444    0.0000 C   0  0  0  0  0  0  0  0  0  0  0  0
   -0.9837   -1.9415    0.0000 C   0  0  0  0  0  0  0  0  0  0  0  0
   -0.8974   -2.7620    0.0000 C   0  0  0  0  0  0  0  0  0  0  0  0
   -0.1830   -3.1745    0.0000 C   0  0  0  0  0  0  0  0  0  0  0  0
    0.5315   -2.7620    0.0000 C   0  0  0  0  0  0  0  0  0  0  0  0
    1.2460   -3.1745    0.0000 N   0  0  0  0  0  0  0  0  0  0  0  0
    1.2460   -3.9995    0.0000 C   0  0  0  0  0  0  0  0  0  0  0  0
    1.9605   -2.7620    0.0000 C   0  0  0  0  0  0  0  0  0  0  0  0
    1.9605   -1.9370    0.0000 C   0  0  0  0  0  0  0  0  0  0  0  0
    2.6749   -3.1745    0.0000 C   0  0  0  0  0  0  0  0  0  0  0  0
    3.3894   -2.7620    0.0000 C   0  0  0  0  0  0  0  0  0  0  0  0
    3.3894   -1.9370    0.0000 C   0  0  0  0  0  0  0  0  0  0  0  0
    4.1039   -1.5245    0.0000 C   0  0  0  0  0  0  0  0  0  0  0  0
    4.8183   -1.9370    0.0000 C   0  0  0  0  0  0  0  0  0  0  0  0
    4.8183   -2.7620    0.0000 C   0  0  0  0  0  0  0  0  0  0  0  0
    4.1039   -3.1745    0.0000 C   0  0  0  0  0  0  0  0  0  0  0  0
   -1.6511   -3.0975    0.0000 N   0  0  0  0  0  0  0  0  0  0  0  0
   -1.8226   -3.9045    0.0000 C   0  0  0  0  0  0  0  0  0  0  0  0
   -2.2031   -2.4844    0.0000 N   0  0  0  0  0  0  0  0  0  0  0  0
   -1.7906   -1.7700    0.0000 C   0  0  0  0  0  0  0  0  0  0  0  0
   -2.1262   -1.0163    0.0000 O   0  0  0  0  0  0  0  0  0  0  0  0
   -3.0236   -2.5707    0.0000 C   0  0  0  0  0  0  0  0  0  0  0  0
   -3.3592   -3.3244    0.0000 C   0  0  0  0  0  0  0  0  0  0  0  0
   -4.1796   -3.4106    0.0000 C   0  0  0  0  0  0  0  0  0  0  0  0
   -4.6646   -2.7432    0.0000 C   0  0  0  0  0  0  0  0  0  0  0  0
   -4.3290   -1.9895    0.0000 C   0  0  0  0  0  0  0  0  0  0  0  0
   -3.5085   -1.9032    0.0000 C   0  0  0  0  0  0  0  0  0  0  0  0
  1  2  1  0  0  0  0
  2  3  1  0  0  0  0
  2  4  1  0  0  0  0
  4  5  2  0  0  0  0
  5  6  1  0  0  0  0
  6  7  1  0  0  0  0
  7  8  1  0  0  0  0
  8  9  1  0  0  0  0
  8 10  1  0  0  0  0
 10 11  1  0  0  0  0
 10 12  1  0  0  0  0
 12 13  1  0  0  0  0
 13 14  4  0  0  0  0
 14 15  4  0  0  0  0
 15 16  4  0  0  0  0
 16 17  4  0  0  0  0
 17 18  4  0  0  0  0
 13 18  4  0  0  0  0
  5 19  1  0  0  0  0
 19 20  1  0  0  0  0
 19 21  1  0  0  0  0
 21 22  1  0  0  0  0
  4 22  1  0  0  0  0
 22 23  2  0  0  0  0
 21 24  1  0  0  0  0
 24 25  4  0  0  0  0
 25 26  4  0  0  0  0
 26 27  4  0  0  0  0
 27 28  4  0  0  0  0
 28 29  4  0  0  0  0
 24 29  4  0  0  0  0
M  END
>  <ID>
1130

>  <PREFERRED_NAME>
famprofazone

>  <CAS_RN>
22881-35-2

>  <SYNONYMS>
famprofazone
gewodin

>  <URL>
http://drugcentral.org/drugcard/1130/view

$$$$
