faropenem medoxil
  -INDIGO-06102311182D

 27 30  0  0  1  0  0  0  0  0999 V2000
   -0.4319    0.6187    0.0000 C   0  0  0  0  0  0  0  0  0  0  0  0
    0.3649    0.8322    0.0000 C   0  0  1  0  0  0  0  0  0  0  0  0
    0.5785    1.6291    0.0000 O   0  0  0  0  0  0  0  0  0  0  0  0
    0.9483    0.2488    0.0000 C   0  0  2  0  0  0  0  0  0  0  0  0
    1.7733    0.2488    0.0000 C   0  0  1  0  0  0  0  0  0  0  0  0
    2.5579    0.5038    0.0000 S   0  0  0  0  0  0  0  0  0  0  0  0
    3.0428   -0.1637    0.0000 C   0  0  0  0  0  0  0  0  0  0  0  0
    3.8678   -0.1637    0.0000 C   0  0  1  0  0  0  0  0  0  0  0  0
    4.3528    0.5038    0.0000 C   0  0  0  0  0  0  0  0  0  0  0  0
    5.1374    0.2488    0.0000 C   0  0  0  0  0  0  0  0  0  0  0  0
    5.1374   -0.5762    0.0000 C   0  0  0  0  0  0  0  0  0  0  0  0
    4.3528   -0.8311    0.0000 O   0  0  0  0  0  0  0  0  0  0  0  0
    2.5579   -0.8311    0.0000 C   0  0  0  0  0  0  0  0  0  0  0  0
    1.7733   -0.5762    0.0000 N   0  0  0  0  0  0  0  0  0  0  0  0
    0.9483   -0.5762    0.0000 C   0  0  0  0  0  0  0  0  0  0  0  0
    0.3649   -1.1595    0.0000 O   0  0  0  0  0  0  0  0  0  0  0  0
    2.8129   -1.6157    0.0000 C   0  0  0  0  0  0  0  0  0  0  0  0
    2.2608   -2.2288    0.0000 O   0  0  0  0  0  0  0  0  0  0  0  0
    3.6198   -1.7873    0.0000 O   0  0  0  0  0  0  0  0  0  0  0  0
    3.8748   -2.5719    0.0000 C   0  0  0  0  0  0  0  0  0  0  0  0
    4.6817   -2.7434    0.0000 C   0  0  0  0  0  0  0  0  0  0  0  0
    5.2948   -2.1914    0.0000 C   0  0  0  0  0  0  0  0  0  0  0  0
    5.2086   -1.3709    0.0000 C   0  0  0  0  0  0  0  0  0  0  0  0
    6.0093   -2.6039    0.0000 O   0  0  0  0  0  0  0  0  0  0  0  0
    5.8378   -3.4109    0.0000 C   0  0  0  0  0  0  0  0  0  0  0  0
    6.3898   -4.0240    0.0000 O   0  0  0  0  0  0  0  0  0  0  0  0
    5.0173   -3.4971    0.0000 O   0  0  0  0  0  0  0  0  0  0  0  0
  1  2  1  0  0  0  0
  2  3  1  1  0  0  0
  4  2  1  6  0  0  0
  4  5  1  0  0  0  0
  5  6  1  0  0  0  0
  6  7  1  0  0  0  0
  8  7  1  1  0  0  0
  8  9  1  0  0  0  0
  9 10  1  0  0  0  0
 10 11  1  0  0  0  0
 11 12  1  0  0  0  0
  8 12  1  0  0  0  0
  7 13  2  0  0  0  0
 13 14  1  0  0  0  0
  5 14  1  1  0  0  0
 14 15  1  0  0  0  0
  4 15  1  0  0  0  0
 15 16  2  0  0  0  0
 13 17  1  0  0  0  0
 17 18  2  0  0  0  0
 17 19  1  0  0  0  0
 19 20  1  0  0  0  0
 20 21  1  0  0  0  0
 21 22  2  0  0  0  0
 22 23  1  0  0  0  0
 22 24  1  0  0  0  0
 24 25  1  0  0  0  0
 25 26  2  0  0  0  0
 25 27  1  0  0  0  0
 21 27  1  0  0  0  0
M  END
>  <ID>
5145

>  <PREFERRED_NAME>
faropenem medoxil

>  <CAS_RN>
141702-36-5

>  <SYNONYMS>
faropenem medoxil
faropenem medoxomil
faropenem daloxate
BAY 56-6854
BAY 566854

>  <URL>
http://drugcentral.org/drugcard/5145/view

$$$$
