fedratinib
  -INDIGO-06102311212D

 37 40  0  0  0  0  0  0  0  0999 V2000
  -11.3248    5.5902    0.0000 C   0  0  0  0  0  0  0  0  0  0  0  0
  -11.3248    4.7652    0.0000 C   0  0  0  0  0  0  0  0  0  0  0  0
  -10.6104    4.3527    0.0000 C   0  0  0  0  0  0  0  0  0  0  0  0
  -10.6104    3.5277    0.0000 N   0  0  0  0  0  0  0  0  0  0  0  0
  -11.3248    3.1152    0.0000 C   0  0  0  0  0  0  0  0  0  0  0  0
  -11.3248    2.2902    0.0000 N   0  0  0  0  0  0  0  0  0  0  0  0
  -10.6104    1.8777    0.0000 C   0  0  0  0  0  0  0  0  0  0  0  0
   -9.8959    2.2902    0.0000 C   0  0  0  0  0  0  0  0  0  0  0  0
   -9.1814    1.8777    0.0000 C   0  0  0  0  0  0  0  0  0  0  0  0
   -9.1814    1.0527    0.0000 C   0  0  0  0  0  0  0  0  0  0  0  0
   -8.4669    0.6402    0.0000 O   0  0  0  0  0  0  0  0  0  0  0  0
   -8.4669   -0.1848    0.0000 C   0  0  0  0  0  0  0  0  0  0  0  0
   -7.7525   -0.5973    0.0000 C   0  0  0  0  0  0  0  0  0  0  0  0
   -7.7525   -1.4223    0.0000 N   0  0  0  0  0  0  0  0  0  0  0  0
   -7.0850   -1.9072    0.0000 C   0  0  0  0  0  0  0  0  0  0  0  0
   -7.3400   -2.6919    0.0000 C   0  0  0  0  0  0  0  0  0  0  0  0
   -8.1650   -2.6919    0.0000 C   0  0  0  0  0  0  0  0  0  0  0  0
   -8.4199   -1.9072    0.0000 C   0  0  0  0  0  0  0  0  0  0  0  0
   -9.8959    0.6402    0.0000 C   0  0  0  0  0  0  0  0  0  0  0  0
  -10.6104    1.0527    0.0000 C   0  0  0  0  0  0  0  0  0  0  0  0
  -12.0393    3.5277    0.0000 N   0  0  0  0  0  0  0  0  0  0  0  0
  -12.0393    4.3527    0.0000 C   0  0  0  0  0  0  0  0  0  0  0  0
  -12.7538    4.7652    0.0000 N   0  0  0  0  0  0  0  0  0  0  0  0
  -13.4682    4.3527    0.0000 C   0  0  0  0  0  0  0  0  0  0  0  0
  -13.4682    3.5277    0.0000 C   0  0  0  0  0  0  0  0  0  0  0  0
  -14.1827    3.1152    0.0000 C   0  0  0  0  0  0  0  0  0  0  0  0
  -14.8972    3.5277    0.0000 C   0  0  0  0  0  0  0  0  0  0  0  0
  -14.8972    4.3527    0.0000 C   0  0  0  0  0  0  0  0  0  0  0  0
  -14.1827    4.7652    0.0000 C   0  0  0  0  0  0  0  0  0  0  0  0
  -15.6117    4.7652    0.0000 S   0  0  0  0  0  0  0  0  0  0  0  0
  -15.1992    5.4797    0.0000 O   0  0  0  0  0  0  0  0  0  0  0  0
  -16.0242    4.0507    0.0000 O   0  0  0  0  0  0  0  0  0  0  0  0
  -16.3261    5.1777    0.0000 N   0  0  0  0  0  0  0  0  0  0  0  0
  -17.0406    4.7652    0.0000 C   0  0  0  0  0  0  0  0  0  0  0  0
  -17.7551    4.3527    0.0000 C   0  0  0  0  0  0  0  0  0  0  0  0
  -17.4531    5.4797    0.0000 C   0  0  0  0  0  0  0  0  0  0  0  0
  -16.6281    4.0507    0.0000 C   0  0  0  0  0  0  0  0  0  0  0  0
  1  2  1  0  0  0  0
  2  3  4  0  0  0  0
  3  4  4  0  0  0  0
  4  5  4  0  0  0  0
  5  6  1  0  0  0  0
  6  7  1  0  0  0  0
  7  8  4  0  0  0  0
  8  9  4  0  0  0  0
  9 10  4  0  0  0  0
 10 11  1  0  0  0  0
 11 12  1  0  0  0  0
 12 13  1  0  0  0  0
 13 14  1  0  0  0  0
 14 15  1  0  0  0  0
 15 16  1  0  0  0  0
 16 17  1  0  0  0  0
 17 18  1  0  0  0  0
 14 18  1  0  0  0  0
 10 19  4  0  0  0  0
 19 20  4  0  0  0  0
  7 20  4  0  0  0  0
  5 21  4  0  0  0  0
 21 22  4  0  0  0  0
  2 22  4  0  0  0  0
 22 23  1  0  0  0  0
 23 24  1  0  0  0  0
 24 25  4  0  0  0  0
 25 26  4  0  0  0  0
 26 27  4  0  0  0  0
 27 28  4  0  0  0  0
 28 29  4  0  0  0  0
 24 29  4  0  0  0  0
 28 30  1  0  0  0  0
 30 31  2  0  0  0  0
 30 32  2  0  0  0  0
 30 33  1  0  0  0  0
 33 34  1  0  0  0  0
 34 35  1  0  0  0  0
 34 36  1  0  0  0  0
 34 37  1  0  0  0  0
M  END
>  <ID>
5347

>  <PREFERRED_NAME>
fedratinib

>  <CAS_RN>
936091-26-8

>  <SYNONYMS>
fedratinib
fedratinib hydrochloride
SAR302503
SAR-302503
TG101348
TG-101348
FEDR
inrebic

>  <URL>
http://drugcentral.org/drugcard/5347/view

$$$$
