fenalamide
  -INDIGO-06102311002D

 24 24  0  0  0  0  0  0  0  0999 V2000
    0.3316    2.2836    0.0000 C   0  0  0  0  0  0  0  0  0  0  0  0
    0.3316    1.4586    0.0000 C   0  0  0  0  0  0  0  0  0  0  0  0
    1.0461    1.0461    0.0000 O   0  0  0  0  0  0  0  0  0  0  0  0
    1.0461    0.2211    0.0000 C   0  0  0  0  0  0  0  0  0  0  0  0
    0.3316   -0.1914    0.0000 O   0  0  0  0  0  0  0  0  0  0  0  0
    1.7605   -0.1914    0.0000 C   0  0  0  0  0  0  0  0  0  0  0  0
    1.3480   -0.9059    0.0000 C   0  0  0  0  0  0  0  0  0  0  0  0
    1.7605   -1.6204    0.0000 C   0  0  0  0  0  0  0  0  0  0  0  0
    2.4750   -0.6039    0.0000 C   0  0  0  0  0  0  0  0  0  0  0  0
    3.1895   -0.1914    0.0000 O   0  0  0  0  0  0  0  0  0  0  0  0
    2.4750   -1.4289    0.0000 N   0  0  0  0  0  0  0  0  0  0  0  0
    3.1895   -1.8414    0.0000 C   0  0  0  0  0  0  0  0  0  0  0  0
    3.1895   -2.6664    0.0000 C   0  0  0  0  0  0  0  0  0  0  0  0
    3.9039   -3.0789    0.0000 N   0  0  0  0  0  0  0  0  0  0  0  0
    3.9039   -3.9039    0.0000 C   0  0  0  0  0  0  0  0  0  0  0  0
    4.6184   -4.3164    0.0000 C   0  0  0  0  0  0  0  0  0  0  0  0
    4.6184   -2.6664    0.0000 C   0  0  0  0  0  0  0  0  0  0  0  0
    5.3329   -3.0789    0.0000 C   0  0  0  0  0  0  0  0  0  0  0  0
    2.1730    0.5230    0.0000 C   0  0  0  0  0  0  0  0  0  0  0  0
    1.7605    1.2375    0.0000 C   0  0  0  0  0  0  0  0  0  0  0  0
    2.1730    1.9520    0.0000 C   0  0  0  0  0  0  0  0  0  0  0  0
    2.9980    1.9520    0.0000 C   0  0  0  0  0  0  0  0  0  0  0  0
    3.4105    1.2375    0.0000 C   0  0  0  0  0  0  0  0  0  0  0  0
    2.9980    0.5230    0.0000 C   0  0  0  0  0  0  0  0  0  0  0  0
  1  2  1  0  0  0  0
  2  3  1  0  0  0  0
  3  4  1  0  0  0  0
  4  5  2  0  0  0  0
  4  6  1  0  0  0  0
  6  7  1  0  0  0  0
  7  8  1  0  0  0  0
  6  9  1  0  0  0  0
  9 10  2  0  0  0  0
  9 11  1  0  0  0  0
 11 12  1  0  0  0  0
 12 13  1  0  0  0  0
 13 14  1  0  0  0  0
 14 15  1  0  0  0  0
 15 16  1  0  0  0  0
 14 17  1  0  0  0  0
 17 18  1  0  0  0  0
  6 19  1  0  0  0  0
 19 20  4  0  0  0  0
 20 21  4  0  0  0  0
 21 22  4  0  0  0  0
 22 23  4  0  0  0  0
 23 24  4  0  0  0  0
 19 24  4  0  0  0  0
M  END
>  <ID>
1143

>  <PREFERRED_NAME>
fenalamide

>  <CAS_RN>
4551-59-1

>  <SYNONYMS>
fenalamide
femamide
phemamide
spasmamide

>  <URL>
http://drugcentral.org/drugcard/1143/view

$$$$
