fenbenicillin
  -INDIGO-06102311092D

 30 33  0  0  1  0  0  0  0  0999 V2000
    2.5600    0.7927    0.0000 C   0  0  0  0  0  0  0  0  0  0  0  0
    1.9469    1.3448    0.0000 C   0  0  0  0  0  0  0  0  0  0  0  0
    2.5600    1.8968    0.0000 C   0  0  0  0  0  0  0  0  0  0  0  0
    1.4620    0.6773    0.0000 S   0  0  0  0  0  0  0  0  0  0  0  0
    0.6773    0.9323    0.0000 C   0  0  2  0  0  0  0  0  0  0  0  0
   -0.1477    0.9323    0.0000 C   0  0  2  0  0  0  0  0  0  0  0  0
   -0.7310    0.3489    0.0000 N   0  0  0  0  0  0  0  0  0  0  0  0
   -1.5279    0.5624    0.0000 C   0  0  0  0  0  0  0  0  0  0  0  0
   -1.7414    1.3593    0.0000 O   0  0  0  0  0  0  0  0  0  0  0  0
   -2.1113   -0.0209    0.0000 C   0  0  0  0  0  0  0  0  0  0  0  0
   -2.9082    0.1926    0.0000 O   0  0  0  0  0  0  0  0  0  0  0  0
   -3.4915   -0.3908    0.0000 C   0  0  0  0  0  0  0  0  0  0  0  0
   -3.2780   -1.1876    0.0000 C   0  0  0  0  0  0  0  0  0  0  0  0
   -3.8614   -1.7710    0.0000 C   0  0  0  0  0  0  0  0  0  0  0  0
   -4.6583   -1.5575    0.0000 C   0  0  0  0  0  0  0  0  0  0  0  0
   -4.8718   -0.7606    0.0000 C   0  0  0  0  0  0  0  0  0  0  0  0
   -4.2884   -0.1772    0.0000 C   0  0  0  0  0  0  0  0  0  0  0  0
   -1.8977   -0.8178    0.0000 C   0  0  0  0  0  0  0  0  0  0  0  0
   -1.1009   -1.0313    0.0000 C   0  0  0  0  0  0  0  0  0  0  0  0
   -0.8873   -1.8282    0.0000 C   0  0  0  0  0  0  0  0  0  0  0  0
   -1.4707   -2.4116    0.0000 C   0  0  0  0  0  0  0  0  0  0  0  0
   -2.2676   -2.1981    0.0000 C   0  0  0  0  0  0  0  0  0  0  0  0
   -2.4811   -1.4012    0.0000 C   0  0  0  0  0  0  0  0  0  0  0  0
   -0.1477    1.7573    0.0000 C   0  0  0  0  0  0  0  0  0  0  0  0
   -0.7310    2.3406    0.0000 O   0  0  0  0  0  0  0  0  0  0  0  0
    0.6773    1.7573    0.0000 N   0  0  0  0  0  0  0  0  0  0  0  0
    1.4620    2.0122    0.0000 C   0  0  1  0  0  0  0  0  0  0  0  0
    1.7169    2.7968    0.0000 C   0  0  0  0  0  0  0  0  0  0  0  0
    1.1649    3.4099    0.0000 O   0  0  0  0  0  0  0  0  0  0  0  0
    2.5239    2.9684    0.0000 O   0  0  0  0  0  0  0  0  0  0  0  0
  1  2  1  0  0  0  0
  2  3  1  0  0  0  0
  2  4  1  0  0  0  0
  4  5  1  0  0  0  0
  5  6  1  0  0  0  0
  6  7  1  6  0  0  0
  7  8  1  0  0  0  0
  8  9  2  0  0  0  0
  8 10  1  0  0  0  0
 10 11  1  0  0  0  0
 11 12  1  0  0  0  0
 12 13  4  0  0  0  0
 13 14  4  0  0  0  0
 14 15  4  0  0  0  0
 15 16  4  0  0  0  0
 16 17  4  0  0  0  0
 12 17  4  0  0  0  0
 10 18  1  0  0  0  0
 18 19  4  0  0  0  0
 19 20  4  0  0  0  0
 20 21  4  0  0  0  0
 21 22  4  0  0  0  0
 22 23  4  0  0  0  0
 18 23  4  0  0  0  0
  6 24  1  0  0  0  0
 24 25  2  0  0  0  0
 24 26  1  0  0  0  0
  5 26  1  6  0  0  0
 26 27  1  0  0  0  0
  2 27  1  0  0  0  0
 27 28  1  1  0  0  0
 28 29  1  0  0  0  0
 28 30  2  0  0  0  0
M  END
>  <ID>
3221

>  <PREFERRED_NAME>
fenbenicillin

>  <CAS_RN>
1177-30-6

>  <SYNONYMS>
fenbenicillin
phenbenicillin
fenbenicillin potassium salt
penspek

>  <URL>
http://drugcentral.org/drugcard/3221/view

$$$$
