fenpiverinium
  -INDIGO-06102311002D

 25 27  0  0  0  0  0  0  0  0999 V2000
   -1.4497    1.4643    0.0000 C   0  0  0  0  0  0  0  0  0  0  0  0
   -1.9800    0.8323    0.0000 N   0  0  0  0  0  0  0  0  0  0  0  0
   -2.5103    1.4643    0.0000 C   0  0  0  0  0  0  0  0  0  0  0  0
   -2.2281    2.2395    0.0000 C   0  0  0  0  0  0  0  0  0  0  0  0
   -2.7584    2.8715    0.0000 C   0  0  0  0  0  0  0  0  0  0  0  0
   -2.1265    3.4018    0.0000 C   0  0  0  0  0  0  0  0  0  0  0  0
   -2.2697    4.2143    0.0000 N   0  0  0  0  0  0  0  0  0  0  0  0
   -1.3512    3.1196    0.0000 O   0  0  0  0  0  0  0  0  0  0  0  0
   -3.2887    3.5035    0.0000 C   0  0  0  0  0  0  0  0  0  0  0  0
   -4.1012    3.3602    0.0000 C   0  0  0  0  0  0  0  0  0  0  0  0
   -4.6315    3.9922    0.0000 C   0  0  0  0  0  0  0  0  0  0  0  0
   -4.3493    4.7675    0.0000 C   0  0  0  0  0  0  0  0  0  0  0  0
   -3.5369    4.9107    0.0000 C   0  0  0  0  0  0  0  0  0  0  0  0
   -3.0066    4.2787    0.0000 C   0  0  0  0  0  0  0  0  0  0  0  0
   -3.3904    2.3412    0.0000 C   0  0  0  0  0  0  0  0  0  0  0  0
   -3.2472    1.5287    0.0000 C   0  0  0  0  0  0  0  0  0  0  0  0
   -3.8792    0.9984    0.0000 C   0  0  0  0  0  0  0  0  0  0  0  0
   -4.6544    1.2806    0.0000 C   0  0  0  0  0  0  0  0  0  0  0  0
   -4.7977    2.0931    0.0000 C   0  0  0  0  0  0  0  0  0  0  0  0
   -4.1657    2.6234    0.0000 C   0  0  0  0  0  0  0  0  0  0  0  0
   -1.2655    0.4198    0.0000 C   0  0  0  0  0  0  0  0  0  0  0  0
   -1.2655   -0.4052    0.0000 C   0  0  0  0  0  0  0  0  0  0  0  0
   -1.9800   -0.8177    0.0000 C   0  0  0  0  0  0  0  0  0  0  0  0
   -2.6945   -0.4052    0.0000 C   0  0  0  0  0  0  0  0  0  0  0  0
   -2.6945    0.4198    0.0000 C   0  0  0  0  0  0  0  0  0  0  0  0
  1  2  1  0  0  0  0
  2  3  1  0  0  0  0
  3  4  1  0  0  0  0
  4  5  1  0  0  0  0
  5  6  1  0  0  0  0
  6  7  1  0  0  0  0
  6  8  2  0  0  0  0
  5  9  1  0  0  0  0
  9 10  4  0  0  0  0
 10 11  4  0  0  0  0
 11 12  4  0  0  0  0
 12 13  4  0  0  0  0
 13 14  4  0  0  0  0
  9 14  4  0  0  0  0
  5 15  1  0  0  0  0
 15 16  4  0  0  0  0
 16 17  4  0  0  0  0
 17 18  4  0  0  0  0
 18 19  4  0  0  0  0
 19 20  4  0  0  0  0
 15 20  4  0  0  0  0
  2 21  1  0  0  0  0
 21 22  1  0  0  0  0
 22 23  1  0  0  0  0
 23 24  1  0  0  0  0
 24 25  1  0  0  0  0
  2 25  1  0  0  0  0
M  CHG  1   2   1
M  END
>  <ID>
1160

>  <PREFERRED_NAME>
fenpiverinium

>  <CAS_RN>
258329-46-3

>  <SYNONYMS>
fenpiverinium
fenpiverinium bromide

>  <URL>
http://drugcentral.org/drugcard/1160/view

$$$$
