fenprostalene
  -INDIGO-06102311232D

 29 30  0  0  1  0  0  0  0  0999 V2000
   -6.6284   -6.2082    0.0000 C   0  0  0  0  0  0  0  0  0  0  0  0
   -5.9139   -5.7957    0.0000 O   0  0  0  0  0  0  0  0  0  0  0  0
   -5.1995   -6.2082    0.0000 C   0  0  0  0  0  0  0  0  0  0  0  0
   -5.1995   -7.0332    0.0000 O   0  0  0  0  0  0  0  0  0  0  0  0
   -4.4850   -5.7957    0.0000 C   0  0  0  0  0  0  0  0  0  0  0  0
   -3.7705   -6.2082    0.0000 C   0  0  0  0  0  0  0  0  0  0  0  0
   -3.0561   -5.7957    0.0000 C   0  0  0  0  0  0  0  0  0  0  0  0
   -2.3416   -6.2082    0.0000 C   0  0  0  0  0  0  0  0  0  0  0  0
   -1.6271   -6.6207    0.0000 C   0  0  0  0  0  0  0  0  0  0  0  0
   -0.9126   -6.2082    0.0000 C   0  0  0  0  0  0  0  0  0  0  0  0
   -0.9126   -5.3832    0.0000 C   0  0  2  0  0  0  0  0  0  0  0  0
   -1.5801   -4.8983    0.0000 C   0  0  2  0  0  0  0  0  0  0  0  0
   -2.3647   -5.1533    0.0000 O   0  0  0  0  0  0  0  0  0  0  0  0
   -1.3251   -4.1137    0.0000 C   0  0  0  0  0  0  0  0  0  0  0  0
   -0.5001   -4.1137    0.0000 C   0  0  2  0  0  0  0  0  0  0  0  0
   -0.0152   -3.4463    0.0000 O   0  0  0  0  0  0  0  0  0  0  0  0
   -0.2452   -4.8983    0.0000 C   0  0  1  0  0  0  0  0  0  0  0  0
    0.5394   -5.1533    0.0000 C   0  0  0  0  0  0  0  0  0  0  0  0
    0.7109   -5.9602    0.0000 C   0  0  0  0  0  0  0  0  0  0  0  0
    1.4956   -6.2152    0.0000 C   0  0  2  0  0  0  0  0  0  0  0  0
    2.1087   -5.6631    0.0000 O   0  0  0  0  0  0  0  0  0  0  0  0
    1.6671   -7.0221    0.0000 C   0  0  0  0  0  0  0  0  0  0  0  0
    2.4517   -7.2771    0.0000 O   0  0  0  0  0  0  0  0  0  0  0  0
    3.0648   -6.7251    0.0000 C   0  0  0  0  0  0  0  0  0  0  0  0
    2.8933   -5.9181    0.0000 C   0  0  0  0  0  0  0  0  0  0  0  0
    3.5064   -5.3660    0.0000 C   0  0  0  0  0  0  0  0  0  0  0  0
    4.2910   -5.6210    0.0000 C   0  0  0  0  0  0  0  0  0  0  0  0
    4.4625   -6.4280    0.0000 C   0  0  0  0  0  0  0  0  0  0  0  0
    3.8494   -6.9800    0.0000 C   0  0  0  0  0  0  0  0  0  0  0  0
  1  2  1  0  0  0  0
  2  3  1  0  0  0  0
  3  4  2  0  0  0  0
  3  5  1  0  0  0  0
  5  6  1  0  0  0  0
  6  7  1  0  0  0  0
  7  8  2  0  0  0  0
  8  9  2  0  0  0  0
  9 10  1  0  0  0  0
 11 10  1  6  0  0  0
 11 12  1  0  0  0  0
 12 13  1  6  0  0  0
 12 14  1  0  0  0  0
 14 15  1  0  0  0  0
 15 16  1  6  0  0  0
 15 17  1  0  0  0  0
 11 17  1  0  0  0  0
 17 18  1  1  0  0  0
 18 19  2  0  0  0  0
 19 20  1  0  0  0  0
 20 21  1  6  0  0  0
 20 22  1  0  0  0  0
 22 23  1  0  0  0  0
 23 24  1  0  0  0  0
 24 25  4  0  0  0  0
 25 26  4  0  0  0  0
 26 27  4  0  0  0  0
 27 28  4  0  0  0  0
 28 29  4  0  0  0  0
 24 29  4  0  0  0  0
M  END
>  <ID>
5540

>  <PREFERRED_NAME>
fenprostalene

>  <CAS_RN>
69381-94-8

>  <SYNONYMS>
fenprostalene
RS-84043

>  <URL>
http://drugcentral.org/drugcard/5540/view

$$$$
