fenticonazole
  -INDIGO-06102311002D

 30 33  0  0  0  0  0  0  0  0999 V2000
    2.9646    0.7634    0.0000 Cl  0  0  0  0  0  0  0  0  0  0  0  0
    2.9646   -0.0616    0.0000 C   0  0  0  0  0  0  0  0  0  0  0  0
    3.6791   -0.4741    0.0000 C   0  0  0  0  0  0  0  0  0  0  0  0
    3.6791   -1.2991    0.0000 C   0  0  0  0  0  0  0  0  0  0  0  0
    2.9646   -1.7116    0.0000 C   0  0  0  0  0  0  0  0  0  0  0  0
    2.9646   -2.5366    0.0000 C   0  0  0  0  0  0  0  0  0  0  0  0
    3.6791   -2.9491    0.0000 C   0  0  0  0  0  0  0  0  0  0  0  0
    3.6791   -3.7741    0.0000 N   0  0  0  0  0  0  0  0  0  0  0  0
    4.3465   -4.2590    0.0000 C   0  0  0  0  0  0  0  0  0  0  0  0
    4.0916   -5.0437    0.0000 C   0  0  0  0  0  0  0  0  0  0  0  0
    3.2666   -5.0437    0.0000 N   0  0  0  0  0  0  0  0  0  0  0  0
    3.0116   -4.2590    0.0000 C   0  0  0  0  0  0  0  0  0  0  0  0
    2.2501   -2.9491    0.0000 O   0  0  0  0  0  0  0  0  0  0  0  0
    2.2501   -3.7741    0.0000 C   0  0  0  0  0  0  0  0  0  0  0  0
    1.5356   -4.1866    0.0000 C   0  0  0  0  0  0  0  0  0  0  0  0
    1.5356   -5.0116    0.0000 C   0  0  0  0  0  0  0  0  0  0  0  0
    0.8212   -5.4241    0.0000 C   0  0  0  0  0  0  0  0  0  0  0  0
    0.1067   -5.0116    0.0000 C   0  0  0  0  0  0  0  0  0  0  0  0
   -0.6078   -5.4241    0.0000 S   0  0  0  0  0  0  0  0  0  0  0  0
   -1.3222   -5.0116    0.0000 C   0  0  0  0  0  0  0  0  0  0  0  0
   -2.0367   -5.4241    0.0000 C   0  0  0  0  0  0  0  0  0  0  0  0
   -2.7512   -5.0116    0.0000 C   0  0  0  0  0  0  0  0  0  0  0  0
   -2.7512   -4.1866    0.0000 C   0  0  0  0  0  0  0  0  0  0  0  0
   -2.0367   -3.7741    0.0000 C   0  0  0  0  0  0  0  0  0  0  0  0
   -1.3222   -4.1866    0.0000 C   0  0  0  0  0  0  0  0  0  0  0  0
    0.1067   -4.1866    0.0000 C   0  0  0  0  0  0  0  0  0  0  0  0
    0.8212   -3.7741    0.0000 C   0  0  0  0  0  0  0  0  0  0  0  0
    2.2501   -1.2991    0.0000 C   0  0  0  0  0  0  0  0  0  0  0  0
    1.5356   -1.7116    0.0000 Cl  0  0  0  0  0  0  0  0  0  0  0  0
    2.2501   -0.4741    0.0000 C   0  0  0  0  0  0  0  0  0  0  0  0
  1  2  1  0  0  0  0
  2  3  4  0  0  0  0
  3  4  4  0  0  0  0
  4  5  4  0  0  0  0
  5  6  1  0  0  0  0
  6  7  1  0  0  0  0
  7  8  1  0  0  0  0
  8  9  4  0  0  0  0
  9 10  4  0  0  0  0
 10 11  4  0  0  0  0
 11 12  4  0  0  0  0
  8 12  4  0  0  0  0
  6 13  1  0  0  0  0
 13 14  1  0  0  0  0
 14 15  1  0  0  0  0
 15 16  4  0  0  0  0
 16 17  4  0  0  0  0
 17 18  4  0  0  0  0
 18 19  1  0  0  0  0
 19 20  1  0  0  0  0
 20 21  4  0  0  0  0
 21 22  4  0  0  0  0
 22 23  4  0  0  0  0
 23 24  4  0  0  0  0
 24 25  4  0  0  0  0
 20 25  4  0  0  0  0
 18 26  4  0  0  0  0
 26 27  4  0  0  0  0
 15 27  4  0  0  0  0
  5 28  4  0  0  0  0
 28 29  1  0  0  0  0
 28 30  4  0  0  0  0
  2 30  4  0  0  0  0
M  END
>  <ID>
1166

>  <PREFERRED_NAME>
fenticonazole

>  <CAS_RN>
72479-26-6

>  <SYNONYMS>
fenticonazole
fenticonazole nitrate
lomexin
fenticonazole mononitate
fenizolan

>  <URL>
http://drugcentral.org/drugcard/1166/view

$$$$
