ferric oxide
  -INDIGO-06102311122D

  5  4  0  0  0  0  0  0  0  0999 V2000
    2.4750   -1.4289    0.0000 O   0  0  0  0  0  0  0  0  0  0  0  0
    2.0625   -0.7145    0.0000 Fe  0  0  0  0  0  0  0  0  0  0  0  0
    1.6500    0.0000    0.0000 O   0  0  0  0  0  0  0  0  0  0  0  0
    0.8250    0.0000    0.0000 Fe  0  0  0  0  0  0  0  0  0  0  0  0
    0.0000    0.0000    0.0000 O   0  0  0  0  0  0  0  0  0  0  0  0
  1  2  2  0  0  0  0
  2  3  1  0  0  0  0
  3  4  1  0  0  0  0
  4  5  2  0  0  0  0
M  END
>  <ID>
4443

>  <PREFERRED_NAME>
ferric oxide

>  <CAS_RN>
1309-37-1

>  <SYNONYMS>
ferric oxide
iron oxide
ferric oxide red
ferric oxide, saccharated
iron oxide, nanoparticles
colloidal ferric oxide

>  <URL>
http://drugcentral.org/drugcard/4443/view

$$$$
