firocoxib
  -INDIGO-06102311232D

 23 25  0  0  0  0  0  0  0  0999 V2000
   -3.6290    3.0115    0.0000 C   0  0  0  0  0  0  0  0  0  0  0  0
   -3.7153    2.1910    0.0000 C   0  0  0  0  0  0  0  0  0  0  0  0
   -4.5223    2.3625    0.0000 C   0  0  0  0  0  0  0  0  0  0  0  0
   -2.8903    2.1910    0.0000 O   0  0  0  0  0  0  0  0  0  0  0  0
   -2.6353    1.4063    0.0000 C   0  0  0  0  0  0  0  0  0  0  0  0
   -1.8507    1.1514    0.0000 O   0  0  0  0  0  0  0  0  0  0  0  0
   -3.3028    0.9214    0.0000 C   0  0  0  0  0  0  0  0  0  0  0  0
   -3.3028    0.0964    0.0000 O   0  0  0  0  0  0  0  0  0  0  0  0
   -2.5883   -0.3161    0.0000 C   0  0  0  0  0  0  0  0  0  0  0  0
   -2.5883   -1.1411    0.0000 C   0  0  0  0  0  0  0  0  0  0  0  0
   -2.1758   -1.8555    0.0000 C   0  0  0  0  0  0  0  0  0  0  0  0
   -3.0008   -1.8555    0.0000 C   0  0  0  0  0  0  0  0  0  0  0  0
   -3.9702    1.4063    0.0000 C   0  0  0  0  0  0  0  0  0  0  0  0
   -4.7548    1.1514    0.0000 C   0  0  0  0  0  0  0  0  0  0  0  0
   -4.9264    0.3444    0.0000 C   0  0  0  0  0  0  0  0  0  0  0  0
   -5.7110    0.0895    0.0000 C   0  0  0  0  0  0  0  0  0  0  0  0
   -6.3241    0.6415    0.0000 C   0  0  0  0  0  0  0  0  0  0  0  0
   -6.1526    1.4485    0.0000 C   0  0  0  0  0  0  0  0  0  0  0  0
   -5.3679    1.7034    0.0000 C   0  0  0  0  0  0  0  0  0  0  0  0
   -7.1087    0.3866    0.0000 S   0  0  0  0  0  0  0  0  0  0  0  0
   -7.8933    0.1317    0.0000 C   0  0  0  0  0  0  0  0  0  0  0  0
   -7.3636    1.1712    0.0000 O   0  0  0  0  0  0  0  0  0  0  0  0
   -6.8538   -0.3980    0.0000 O   0  0  0  0  0  0  0  0  0  0  0  0
  1  2  1  0  0  0  0
  2  3  1  0  0  0  0
  2  4  1  0  0  0  0
  4  5  1  0  0  0  0
  5  6  2  0  0  0  0
  5  7  1  0  0  0  0
  7  8  1  0  0  0  0
  8  9  1  0  0  0  0
  9 10  1  0  0  0  0
 10 11  1  0  0  0  0
 11 12  1  0  0  0  0
 10 12  1  0  0  0  0
  7 13  2  0  0  0  0
  2 13  1  0  0  0  0
 13 14  1  0  0  0  0
 14 15  4  0  0  0  0
 15 16  4  0  0  0  0
 16 17  4  0  0  0  0
 17 18  4  0  0  0  0
 18 19  4  0  0  0  0
 14 19  4  0  0  0  0
 17 20  1  0  0  0  0
 20 21  1  0  0  0  0
 20 22  2  0  0  0  0
 20 23  2  0  0  0  0
M  END
>  <ID>
5542

>  <PREFERRED_NAME>
firocoxib

>  <CAS_RN>
189954-96-9

>  <SYNONYMS>
firocoxib
NSC-758895

>  <URL>
http://drugcentral.org/drugcard/5542/view

$$$$
