flomoxef
  -INDIGO-06102311002D

 32 34  0  0  1  0  0  0  0  0999 V2000
    2.7770   -3.3809    0.0000 C   0  0  0  0  0  0  0  0  0  0  0  0
    2.3645   -2.6664    0.0000 O   0  0  0  0  0  0  0  0  0  0  0  0
    1.5395   -2.6664    0.0000 C   0  0  2  0  0  0  0  0  0  0  0  0
    1.5395   -1.8414    0.0000 N   0  0  0  0  0  0  0  0  0  0  0  0
    2.2539   -1.4289    0.0000 C   0  0  0  0  0  0  0  0  0  0  0  0
    2.2539   -0.6039    0.0000 O   0  0  0  0  0  0  0  0  0  0  0  0
    2.9684   -1.8414    0.0000 C   0  0  0  0  0  0  0  0  0  0  0  0
    3.6829   -1.4289    0.0000 S   0  0  0  0  0  0  0  0  0  0  0  0
    4.3974   -1.8414    0.0000 C   0  0  0  0  0  0  0  0  0  0  0  0
    5.1118   -1.4289    0.0000 F   0  0  0  0  0  0  0  0  0  0  0  0
    4.3974   -2.6664    0.0000 F   0  0  0  0  0  0  0  0  0  0  0  0
    1.5395   -3.4914    0.0000 C   0  0  1  0  0  0  0  0  0  0  0  0
    1.9520   -4.2059    0.0000 O   0  0  0  0  0  0  0  0  0  0  0  0
    1.5395   -4.9204    0.0000 C   0  0  0  0  0  0  0  0  0  0  0  0
    0.7145   -4.9204    0.0000 C   0  0  0  0  0  0  0  0  0  0  0  0
    0.3020   -5.6349    0.0000 C   0  0  0  0  0  0  0  0  0  0  0  0
   -0.5230   -5.6349    0.0000 S   0  0  0  0  0  0  0  0  0  0  0  0
   -0.9355   -6.3493    0.0000 C   0  0  0  0  0  0  0  0  0  0  0  0
   -0.6000   -7.1030    0.0000 N   0  0  0  0  0  0  0  0  0  0  0  0
   -1.2131   -7.6550    0.0000 N   0  0  0  0  0  0  0  0  0  0  0  0
   -1.9275   -7.2425    0.0000 N   0  0  0  0  0  0  0  0  0  0  0  0
   -1.7560   -6.4356    0.0000 N   0  0  0  0  0  0  0  0  0  0  0  0
   -2.3080   -5.8225    0.0000 C   0  0  0  0  0  0  0  0  0  0  0  0
   -3.1150   -5.9940    0.0000 C   0  0  0  0  0  0  0  0  0  0  0  0
   -3.3700   -6.7786    0.0000 O   0  0  0  0  0  0  0  0  0  0  0  0
    0.3020   -4.2059    0.0000 C   0  0  0  0  0  0  0  0  0  0  0  0
    0.7145   -3.4914    0.0000 N   0  0  0  0  0  0  0  0  0  0  0  0
    0.7145   -2.6664    0.0000 C   0  0  0  0  0  0  0  0  0  0  0  0
    0.1311   -2.0831    0.0000 O   0  0  0  0  0  0  0  0  0  0  0  0
   -0.5230   -4.2059    0.0000 C   0  0  0  0  0  0  0  0  0  0  0  0
   -0.9355   -3.4914    0.0000 O   0  0  0  0  0  0  0  0  0  0  0  0
   -0.9355   -4.9204    0.0000 O   0  0  0  0  0  0  0  0  0  0  0  0
  1  2  1  0  0  0  0
  3  2  1  6  0  0  0
  3  4  1  1  0  0  0
  4  5  1  0  0  0  0
  5  6  2  0  0  0  0
  5  7  1  0  0  0  0
  7  8  1  0  0  0  0
  8  9  1  0  0  0  0
  9 10  1  0  0  0  0
  9 11  1  0  0  0  0
  3 12  1  0  0  0  0
 12 13  1  0  0  0  0
 13 14  1  0  0  0  0
 14 15  1  0  0  0  0
 15 16  1  0  0  0  0
 16 17  1  0  0  0  0
 17 18  1  0  0  0  0
 18 19  4  0  0  0  0
 19 20  4  0  0  0  0
 20 21  4  0  0  0  0
 21 22  4  0  0  0  0
 18 22  4  0  0  0  0
 22 23  1  0  0  0  0
 23 24  1  0  0  0  0
 24 25  1  0  0  0  0
 15 26  2  0  0  0  0
 26 27  1  0  0  0  0
 12 27  1  1  0  0  0
 27 28  1  0  0  0  0
  3 28  1  0  0  0  0
 28 29  2  0  0  0  0
 26 30  1  0  0  0  0
 30 31  1  0  0  0  0
 30 32  2  0  0  0  0
M  END
>  <ID>
1179

>  <PREFERRED_NAME>
flomoxef

>  <CAS_RN>
99665-00-6

>  <SYNONYMS>
flomoxef

>  <URL>
http://drugcentral.org/drugcard/1179/view

$$$$
