fluacizine
  -INDIGO-06102311092D

 27 29  0  0  0  0  0  0  0  0999 V2000
   -4.3974    0.1914    0.0000 C   0  0  0  0  0  0  0  0  0  0  0  0
   -3.5724    0.1914    0.0000 C   0  0  0  0  0  0  0  0  0  0  0  0
   -3.1599   -0.5230    0.0000 N   0  0  0  0  0  0  0  0  0  0  0  0
   -3.5724   -1.2375    0.0000 C   0  0  0  0  0  0  0  0  0  0  0  0
   -4.3974   -1.2375    0.0000 C   0  0  0  0  0  0  0  0  0  0  0  0
   -2.3349   -0.5230    0.0000 C   0  0  0  0  0  0  0  0  0  0  0  0
   -1.9224   -1.2375    0.0000 C   0  0  0  0  0  0  0  0  0  0  0  0
   -1.0974   -1.2375    0.0000 C   0  0  0  0  0  0  0  0  0  0  0  0
   -0.6849   -0.5230    0.0000 O   0  0  0  0  0  0  0  0  0  0  0  0
   -0.6849   -1.9520    0.0000 N   0  0  0  0  0  0  0  0  0  0  0  0
   -1.0974   -2.6664    0.0000 C   0  0  0  0  0  0  0  0  0  0  0  0
   -1.9224   -2.6664    0.0000 C   0  0  0  0  0  0  0  0  0  0  0  0
   -2.3349   -3.3809    0.0000 C   0  0  0  0  0  0  0  0  0  0  0  0
   -1.9224   -4.0954    0.0000 C   0  0  0  0  0  0  0  0  0  0  0  0
   -1.0974   -4.0954    0.0000 C   0  0  0  0  0  0  0  0  0  0  0  0
   -0.6849   -3.3809    0.0000 C   0  0  0  0  0  0  0  0  0  0  0  0
    0.1401   -3.3809    0.0000 S   0  0  0  0  0  0  0  0  0  0  0  0
    0.5526   -2.6664    0.0000 C   0  0  0  0  0  0  0  0  0  0  0  0
    0.1401   -1.9520    0.0000 C   0  0  0  0  0  0  0  0  0  0  0  0
    0.5526   -1.2375    0.0000 C   0  0  0  0  0  0  0  0  0  0  0  0
    1.3776   -1.2375    0.0000 C   0  0  0  0  0  0  0  0  0  0  0  0
    1.7901   -1.9520    0.0000 C   0  0  0  0  0  0  0  0  0  0  0  0
    1.3776   -2.6664    0.0000 C   0  0  0  0  0  0  0  0  0  0  0  0
    1.7901   -0.5230    0.0000 C   0  0  0  0  0  0  0  0  0  0  0  0
    2.2026    0.1914    0.0000 F   0  0  0  0  0  0  0  0  0  0  0  0
    2.5046   -0.9355    0.0000 F   0  0  0  0  0  0  0  0  0  0  0  0
    1.0757   -0.1105    0.0000 F   0  0  0  0  0  0  0  0  0  0  0  0
  1  2  1  0  0  0  0
  2  3  1  0  0  0  0
  3  4  1  0  0  0  0
  4  5  1  0  0  0  0
  3  6  1  0  0  0  0
  6  7  1  0  0  0  0
  7  8  1  0  0  0  0
  8  9  2  0  0  0  0
  8 10  1  0  0  0  0
 10 11  1  0  0  0  0
 11 12  4  0  0  0  0
 12 13  4  0  0  0  0
 13 14  4  0  0  0  0
 14 15  4  0  0  0  0
 15 16  4  0  0  0  0
 11 16  4  0  0  0  0
 16 17  1  0  0  0  0
 17 18  1  0  0  0  0
 18 19  4  0  0  0  0
 10 19  1  0  0  0  0
 19 20  4  0  0  0  0
 20 21  4  0  0  0  0
 21 22  4  0  0  0  0
 22 23  4  0  0  0  0
 18 23  4  0  0  0  0
 21 24  1  0  0  0  0
 24 25  1  0  0  0  0
 24 26  1  0  0  0  0
 24 27  1  0  0  0  0
M  END
>  <ID>
3230

>  <PREFERRED_NAME>
fluacizine

>  <CAS_RN>
30223-48-4

>  <SYNONYMS>
fluacizine
fluoracizine
ftoracizine
phtorazisin

>  <URL>
http://drugcentral.org/drugcard/3230/view

$$$$
