fludarabine phosphate
  -INDIGO-06102311002D

 24 26  0  0  1  0  0  0  0  0999 V2000
    0.7145   -1.2375    0.0000 N   0  0  0  0  0  0  0  0  0  0  0  0
    0.7145   -0.4125    0.0000 C   0  0  0  0  0  0  0  0  0  0  0  0
    0.0000    0.0000    0.0000 C   0  0  0  0  0  0  0  0  0  0  0  0
   -0.7846   -0.2549    0.0000 N   0  0  0  0  0  0  0  0  0  0  0  0
   -1.2695    0.4125    0.0000 C   0  0  0  0  0  0  0  0  0  0  0  0
   -0.7846    1.0799    0.0000 N   0  0  0  0  0  0  0  0  0  0  0  0
   -1.0396    1.8646    0.0000 C   0  0  2  0  0  0  0  0  0  0  0  0
   -1.8242    2.1195    0.0000 O   0  0  0  0  0  0  0  0  0  0  0  0
   -1.8242    2.9445    0.0000 C   0  0  2  0  0  0  0  0  0  0  0  0
   -2.4916    3.4294    0.0000 C   0  0  0  0  0  0  0  0  0  0  0  0
   -2.4054    4.2499    0.0000 O   0  0  0  0  0  0  0  0  0  0  0  0
   -3.0728    4.7348    0.0000 P   0  0  0  0  0  0  0  0  0  0  0  0
   -3.7403    5.2197    0.0000 O   0  0  0  0  0  0  0  0  0  0  0  0
   -2.5879    5.4023    0.0000 O   0  0  0  0  0  0  0  0  0  0  0  0
   -3.5577    4.0674    0.0000 O   0  0  0  0  0  0  0  0  0  0  0  0
   -1.0396    3.1994    0.0000 C   0  0  1  0  0  0  0  0  0  0  0  0
   -0.7846    3.9841    0.0000 O   0  0  0  0  0  0  0  0  0  0  0  0
   -0.5546    2.5320    0.0000 C   0  0  2  0  0  0  0  0  0  0  0  0
    0.2704    2.5320    0.0000 O   0  0  0  0  0  0  0  0  0  0  0  0
    0.0000    0.8250    0.0000 C   0  0  0  0  0  0  0  0  0  0  0  0
    0.7145    1.2375    0.0000 N   0  0  0  0  0  0  0  0  0  0  0  0
    1.4289    0.8250    0.0000 C   0  0  0  0  0  0  0  0  0  0  0  0
    2.1434    1.2375    0.0000 F   0  0  0  0  0  0  0  0  0  0  0  0
    1.4289    0.0000    0.0000 N   0  0  0  0  0  0  0  0  0  0  0  0
  1  2  1  0  0  0  0
  2  3  4  0  0  0  0
  3  4  4  0  0  0  0
  4  5  4  0  0  0  0
  5  6  4  0  0  0  0
  7  6  1  6  0  0  0
  7  8  1  0  0  0  0
  8  9  1  0  0  0  0
  9 10  1  6  0  0  0
 10 11  1  0  0  0  0
 11 12  1  0  0  0  0
 12 13  1  0  0  0  0
 12 14  1  0  0  0  0
 12 15  2  0  0  0  0
  9 16  1  0  0  0  0
 16 17  1  1  0  0  0
 16 18  1  0  0  0  0
  7 18  1  0  0  0  0
 18 19  1  6  0  0  0
  6 20  4  0  0  0  0
  3 20  4  0  0  0  0
 20 21  4  0  0  0  0
 21 22  4  0  0  0  0
 22 23  1  0  0  0  0
 22 24  4  0  0  0  0
  2 24  4  0  0  0  0
M  END
>  <ID>
1189

>  <PREFERRED_NAME>
fludarabine phosphate

>  <CAS_RN>
75607-67-9

>  <SYNONYMS>
fludarabine phosphate
fludarabine 5'-monophosphate
fludura
fludara
2-F-ara-AMP

>  <URL>
http://drugcentral.org/drugcard/1189/view

$$$$
