flumazenil
  -INDIGO-06102311002D

 22 24  0  0  0  0  0  0  0  0999 V2000
   -2.2841   -0.5532    0.0000 C   0  0  0  0  0  0  0  0  0  0  0  0
   -1.5612   -0.1557    0.0000 C   0  0  0  0  0  0  0  0  0  0  0  0
   -0.8555   -0.5829    0.0000 O   0  0  0  0  0  0  0  0  0  0  0  0
   -0.1326   -0.1854    0.0000 C   0  0  0  0  0  0  0  0  0  0  0  0
   -0.1154    0.6394    0.0000 O   0  0  0  0  0  0  0  0  0  0  0  0
    0.5732   -0.6127    0.0000 C   0  0  0  0  0  0  0  0  0  0  0  0
    1.3337   -0.2928    0.0000 C   0  0  0  0  0  0  0  0  0  0  0  0
    1.4857    0.5180    0.0000 C   0  0  0  0  0  0  0  0  0  0  0  0
    2.2145    0.9047    0.0000 N   0  0  0  0  0  0  0  0  0  0  0  0
    2.1823    1.7291    0.0000 C   0  0  0  0  0  0  0  0  0  0  0  0
    2.9712    0.5760    0.0000 C   0  0  0  0  0  0  0  0  0  0  0  0
    3.5956    1.1152    0.0000 O   0  0  0  0  0  0  0  0  0  0  0  0
    3.1860   -0.2205    0.0000 C   0  0  0  0  0  0  0  0  0  0  0  0
    4.0060   -0.3115    0.0000 C   0  0  0  0  0  0  0  0  0  0  0  0
    4.3371   -1.0671    0.0000 C   0  0  0  0  0  0  0  0  0  0  0  0
    5.1571   -1.1582    0.0000 F   0  0  0  0  0  0  0  0  0  0  0  0
    3.8483   -1.7317    0.0000 C   0  0  0  0  0  0  0  0  0  0  0  0
    3.0283   -1.6407    0.0000 C   0  0  0  0  0  0  0  0  0  0  0  0
    2.6972   -0.8851    0.0000 C   0  0  0  0  0  0  0  0  0  0  0  0
    1.8728   -0.9173    0.0000 N   0  0  0  0  0  0  0  0  0  0  0  0
    1.4456   -1.6230    0.0000 C   0  0  0  0  0  0  0  0  0  0  0  0
    0.6423   -1.4348    0.0000 N   0  0  0  0  0  0  0  0  0  0  0  0
  1  2  1  0  0  0  0
  2  3  1  0  0  0  0
  3  4  1  0  0  0  0
  4  5  2  0  0  0  0
  4  6  1  0  0  0  0
  6  7  4  0  0  0  0
  7  8  1  0  0  0  0
  8  9  1  0  0  0  0
  9 10  1  0  0  0  0
  9 11  1  0  0  0  0
 11 12  2  0  0  0  0
 11 13  1  0  0  0  0
 13 14  4  0  0  0  0
 14 15  4  0  0  0  0
 15 16  1  0  0  0  0
 15 17  4  0  0  0  0
 17 18  4  0  0  0  0
 18 19  4  0  0  0  0
 13 19  4  0  0  0  0
 19 20  1  0  0  0  0
  7 20  4  0  0  0  0
 20 21  4  0  0  0  0
 21 22  4  0  0  0  0
  6 22  4  0  0  0  0
M  END
>  <ID>
1195

>  <PREFERRED_NAME>
flumazenil

>  <CAS_RN>
78755-81-4

>  <SYNONYMS>
flumazenil
anexate
flumazepil
mazicon
Ro-15-1788

>  <URL>
http://drugcentral.org/drugcard/1195/view

$$$$
