fluprostenol
  -INDIGO-06102311232D

 32 33  0  0  1  0  0  0  0  0999 V2000
   -3.6344   -8.2601    0.0000 O   0  0  0  0  0  0  0  0  0  0  0  0
   -4.2475   -7.7081    0.0000 C   0  0  1  0  0  0  0  0  0  0  0  0
   -5.0321   -7.9630    0.0000 C   0  0  0  0  0  0  0  0  0  0  0  0
   -5.2036   -8.7700    0.0000 O   0  0  0  0  0  0  0  0  0  0  0  0
   -5.9883   -9.0249    0.0000 C   0  0  0  0  0  0  0  0  0  0  0  0
   -6.1598   -9.8319    0.0000 C   0  0  0  0  0  0  0  0  0  0  0  0
   -6.9444  -10.0868    0.0000 C   0  0  0  0  0  0  0  0  0  0  0  0
   -7.5575   -9.5348    0.0000 C   0  0  0  0  0  0  0  0  0  0  0  0
   -7.3860   -8.7278    0.0000 C   0  0  0  0  0  0  0  0  0  0  0  0
   -6.6014   -8.4729    0.0000 C   0  0  0  0  0  0  0  0  0  0  0  0
   -7.1159  -10.8938    0.0000 C   0  0  0  0  0  0  0  0  0  0  0  0
   -7.2875  -11.7008    0.0000 F   0  0  0  0  0  0  0  0  0  0  0  0
   -6.3090  -11.0653    0.0000 F   0  0  0  0  0  0  0  0  0  0  0  0
   -7.9229  -10.7223    0.0000 F   0  0  0  0  0  0  0  0  0  0  0  0
   -4.0760   -6.9011    0.0000 C   0  0  0  0  0  0  0  0  0  0  0  0
   -3.2913   -6.6461    0.0000 C   0  0  0  0  0  0  0  0  0  0  0  0
   -3.1198   -5.8392    0.0000 C   0  0  1  0  0  0  0  0  0  0  0  0
   -3.6718   -5.2261    0.0000 C   0  0  2  0  0  0  0  0  0  0  0  0
   -4.4923   -5.3123    0.0000 O   0  0  0  0  0  0  0  0  0  0  0  0
   -3.2593   -4.5116    0.0000 C   0  0  0  0  0  0  0  0  0  0  0  0
   -2.4524   -4.6831    0.0000 C   0  0  2  0  0  0  0  0  0  0  0  0
   -1.8393   -4.1311    0.0000 O   0  0  0  0  0  0  0  0  0  0  0  0
   -2.3661   -5.5036    0.0000 C   0  0  2  0  0  0  0  0  0  0  0  0
   -1.6517   -5.9161    0.0000 C   0  0  0  0  0  0  0  0  0  0  0  0
   -1.6517   -6.7411    0.0000 C   0  0  0  0  0  0  0  0  0  0  0  0
   -0.9372   -7.1536    0.0000 C   0  0  0  0  0  0  0  0  0  0  0  0
   -0.2227   -6.7411    0.0000 C   0  0  0  0  0  0  0  0  0  0  0  0
    0.4917   -7.1536    0.0000 C   0  0  0  0  0  0  0  0  0  0  0  0
    1.2062   -6.7411    0.0000 C   0  0  0  0  0  0  0  0  0  0  0  0
    1.9207   -7.1536    0.0000 C   0  0  0  0  0  0  0  0  0  0  0  0
    2.6352   -6.7411    0.0000 O   0  0  0  0  0  0  0  0  0  0  0  0
    1.9207   -7.9786    0.0000 O   0  0  0  0  0  0  0  0  0  0  0  0
  2  1  1  1  0  0  0
  2  3  1  0  0  0  0
  3  4  1  0  0  0  0
  4  5  1  0  0  0  0
  5  6  4  0  0  0  0
  6  7  4  0  0  0  0
  7  8  4  0  0  0  0
  8  9  4  0  0  0  0
  9 10  4  0  0  0  0
  5 10  4  0  0  0  0
  7 11  1  0  0  0  0
 11 12  1  0  0  0  0
 11 13  1  0  0  0  0
 11 14  1  0  0  0  0
  2 15  1  0  0  0  0
 15 16  2  0  0  0  0
 17 16  1  1  0  0  0
 17 18  1  0  0  0  0
 18 19  1  6  0  0  0
 18 20  1  0  0  0  0
 20 21  1  0  0  0  0
 21 22  1  6  0  0  0
 21 23  1  0  0  0  0
 17 23  1  0  0  0  0
 23 24  1  6  0  0  0
 24 25  1  0  0  0  0
 25 26  2  0  0  0  0
 26 27  1  0  0  0  0
 27 28  1  0  0  0  0
 28 29  1  0  0  0  0
 29 30  1  0  0  0  0
 30 31  1  0  0  0  0
 30 32  2  0  0  0  0
M  END
>  <ID>
5546

>  <PREFERRED_NAME>
fluprostenol

>  <CAS_RN>
40666-16-8

>  <SYNONYMS>
fluprostenol
fluoprostenol
ICI-81008
fluprostenol sodium

>  <URL>
http://drugcentral.org/drugcard/5546/view

$$$$
