fluroxene
  -INDIGO-06102311092D

  8  7  0  0  0  0  0  0  0  0999 V2000
    2.8875   -2.1434    0.0000 F   0  0  0  0  0  0  0  0  0  0  0  0
    2.4750   -1.4289    0.0000 C   0  0  0  0  0  0  0  0  0  0  0  0
    3.1895   -1.0164    0.0000 F   0  0  0  0  0  0  0  0  0  0  0  0
    1.7605   -1.8414    0.0000 F   0  0  0  0  0  0  0  0  0  0  0  0
    2.0625   -0.7145    0.0000 C   0  0  0  0  0  0  0  0  0  0  0  0
    1.2375   -0.7145    0.0000 O   0  0  0  0  0  0  0  0  0  0  0  0
    0.8250    0.0000    0.0000 C   0  0  0  0  0  0  0  0  0  0  0  0
    0.0000    0.0000    0.0000 C   0  0  0  0  0  0  0  0  0  0  0  0
  1  2  1  0  0  0  0
  2  3  1  0  0  0  0
  2  4  1  0  0  0  0
  2  5  1  0  0  0  0
  5  6  1  0  0  0  0
  6  7  1  0  0  0  0
  7  8  2  0  0  0  0
M  END
>  <ID>
3242

>  <PREFERRED_NAME>
fluroxene

>  <CAS_RN>
406-90-6

>  <SYNONYMS>
fluroxene
fluoromar
fluoroxene
trifluoroethyl vinyl ether

>  <URL>
http://drugcentral.org/drugcard/3242/view

$$$$
