fluralaner
  -INDIGO-06102311232D

 36 38  0  0  0  0  0  0  0  0999 V2000
   -1.9758   -5.0786    0.0000 C   0  0  0  0  0  0  0  0  0  0  0  0
   -1.9758   -5.9036    0.0000 C   0  0  0  0  0  0  0  0  0  0  0  0
   -1.2614   -6.3161    0.0000 C   0  0  0  0  0  0  0  0  0  0  0  0
   -1.2614   -7.1411    0.0000 C   0  0  0  0  0  0  0  0  0  0  0  0
   -1.9758   -7.5536    0.0000 C   0  0  0  0  0  0  0  0  0  0  0  0
   -2.6903   -7.1411    0.0000 C   0  0  0  0  0  0  0  0  0  0  0  0
   -2.6903   -6.3161    0.0000 C   0  0  0  0  0  0  0  0  0  0  0  0
   -3.4048   -7.5536    0.0000 C   0  0  0  0  0  0  0  0  0  0  0  0
   -3.4910   -8.3740    0.0000 N   0  0  0  0  0  0  0  0  0  0  0  0
   -4.2980   -8.5456    0.0000 O   0  0  0  0  0  0  0  0  0  0  0  0
   -4.7105   -7.8311    0.0000 C   0  0  0  0  0  0  0  0  0  0  0  0
   -4.1584   -7.2180    0.0000 C   0  0  0  0  0  0  0  0  0  0  0  0
   -5.4676   -8.1587    0.0000 C   0  0  0  0  0  0  0  0  0  0  0  0
   -5.5624   -8.9783    0.0000 C   0  0  0  0  0  0  0  0  0  0  0  0
   -6.3196   -9.3059    0.0000 C   0  0  0  0  0  0  0  0  0  0  0  0
   -6.4144  -10.1255    0.0000 Cl  0  0  0  0  0  0  0  0  0  0  0  0
   -6.9819   -8.8140    0.0000 C   0  0  0  0  0  0  0  0  0  0  0  0
   -6.8871   -7.9945    0.0000 C   0  0  0  0  0  0  0  0  0  0  0  0
   -7.5494   -7.5026    0.0000 Cl  0  0  0  0  0  0  0  0  0  0  0  0
   -6.1299   -7.6669    0.0000 C   0  0  0  0  0  0  0  0  0  0  0  0
   -5.3830   -7.3532    0.0000 C   0  0  0  0  0  0  0  0  0  0  0  0
   -6.0554   -6.8753    0.0000 F   0  0  0  0  0  0  0  0  0  0  0  0
   -4.9050   -6.6807    0.0000 F   0  0  0  0  0  0  0  0  0  0  0  0
   -6.2079   -7.3618    0.0000 F   0  0  0  0  0  0  0  0  0  0  0  0
   -0.5469   -5.9036    0.0000 C   0  0  0  0  0  0  0  0  0  0  0  0
   -0.5469   -5.0786    0.0000 O   0  0  0  0  0  0  0  0  0  0  0  0
    0.1676   -6.3161    0.0000 N   0  0  0  0  0  0  0  0  0  0  0  0
    0.8821   -5.9036    0.0000 C   0  0  0  0  0  0  0  0  0  0  0  0
    1.5965   -6.3161    0.0000 C   0  0  0  0  0  0  0  0  0  0  0  0
    1.5965   -7.1411    0.0000 O   0  0  0  0  0  0  0  0  0  0  0  0
    2.3110   -5.9036    0.0000 N   0  0  0  0  0  0  0  0  0  0  0  0
    3.0255   -6.3161    0.0000 C   0  0  0  0  0  0  0  0  0  0  0  0
    3.7399   -5.9036    0.0000 C   0  0  0  0  0  0  0  0  0  0  0  0
    4.4544   -5.4911    0.0000 F   0  0  0  0  0  0  0  0  0  0  0  0
    4.1524   -6.6180    0.0000 F   0  0  0  0  0  0  0  0  0  0  0  0
    3.3274   -5.1891    0.0000 F   0  0  0  0  0  0  0  0  0  0  0  0
  1  2  1  0  0  0  0
  2  3  4  0  0  0  0
  3  4  4  0  0  0  0
  4  5  4  0  0  0  0
  5  6  4  0  0  0  0
  6  7  4  0  0  0  0
  2  7  4  0  0  0  0
  6  8  1  0  0  0  0
  8  9  2  0  0  0  0
  9 10  1  0  0  0  0
 10 11  1  0  0  0  0
 11 12  1  0  0  0  0
  8 12  1  0  0  0  0
 11 13  1  0  0  0  0
 13 14  4  0  0  0  0
 14 15  4  0  0  0  0
 15 16  1  0  0  0  0
 15 17  4  0  0  0  0
 17 18  4  0  0  0  0
 18 19  1  0  0  0  0
 18 20  4  0  0  0  0
 13 20  4  0  0  0  0
 11 21  1  0  0  0  0
 21 22  1  0  0  0  0
 21 23  1  0  0  0  0
 21 24  1  0  0  0  0
  3 25  1  0  0  0  0
 25 26  2  0  0  0  0
 25 27  1  0  0  0  0
 27 28  1  0  0  0  0
 28 29  1  0  0  0  0
 29 30  2  0  0  0  0
 29 31  1  0  0  0  0
 31 32  1  0  0  0  0
 32 33  1  0  0  0  0
 33 34  1  0  0  0  0
 33 35  1  0  0  0  0
 33 36  1  0  0  0  0
M  END
>  <ID>
5547

>  <PREFERRED_NAME>
fluralaner

>  <CAS_RN>
864731-61-3

>  <SYNONYMS>
fluralaner
bravecto
AH-252723
A-1443

>  <URL>
http://drugcentral.org/drugcard/5547/view

$$$$
