flutazolam
  -INDIGO-06102311002D

 26 29  0  0  0  0  0  0  0  0999 V2000
    3.8968    5.3827    0.0000 O   0  0  0  0  0  0  0  0  0  0  0  0
    3.2724    4.8435    0.0000 C   0  0  0  0  0  0  0  0  0  0  0  0
    3.4271    4.0331    0.0000 C   0  0  0  0  0  0  0  0  0  0  0  0
    2.8026    3.4940    0.0000 N   0  0  0  0  0  0  0  0  0  0  0  0
    3.0175    2.6974    0.0000 C   0  0  0  0  0  0  0  0  0  0  0  0
    3.8374    2.6064    0.0000 C   0  0  0  0  0  0  0  0  0  0  0  0
    4.1686    1.8508    0.0000 C   0  0  0  0  0  0  0  0  0  0  0  0
    3.6798    1.1862    0.0000 C   0  0  0  0  0  0  0  0  0  0  0  0
    4.0109    0.4306    0.0000 Cl  0  0  0  0  0  0  0  0  0  0  0  0
    2.8598    1.2772    0.0000 C   0  0  0  0  0  0  0  0  0  0  0  0
    2.5286    2.0329    0.0000 C   0  0  0  0  0  0  0  0  0  0  0  0
    1.7043    2.0007    0.0000 C   0  0  0  0  0  0  0  0  0  0  0  0
    1.2770    1.2949    0.0000 O   0  0  0  0  0  0  0  0  0  0  0  0
    0.4738    1.4832    0.0000 C   0  0  0  0  0  0  0  0  0  0  0  0
    0.4046    2.3053    0.0000 C   0  0  0  0  0  0  0  0  0  0  0  0
    1.1651    2.6251    0.0000 N   0  0  0  0  0  0  0  0  0  0  0  0
    1.3172    3.4360    0.0000 C   0  0  0  0  0  0  0  0  0  0  0  0
    2.0459    3.8227    0.0000 C   0  0  0  0  0  0  0  0  0  0  0  0
    2.0137    4.6470    0.0000 O   0  0  0  0  0  0  0  0  0  0  0  0
    1.8832    1.1953    0.0000 C   0  0  0  0  0  0  0  0  0  0  0  0
    1.2751    0.6377    0.0000 C   0  0  0  0  0  0  0  0  0  0  0  0
    0.4882    0.8854    0.0000 F   0  0  0  0  0  0  0  0  0  0  0  0
    1.4540   -0.1677    0.0000 C   0  0  0  0  0  0  0  0  0  0  0  0
    2.2409   -0.4155    0.0000 C   0  0  0  0  0  0  0  0  0  0  0  0
    2.8489    0.1421    0.0000 C   0  0  0  0  0  0  0  0  0  0  0  0
    2.6701    0.9475    0.0000 C   0  0  0  0  0  0  0  0  0  0  0  0
  1  2  1  0  0  0  0
  2  3  1  0  0  0  0
  3  4  1  0  0  0  0
  4  5  1  0  0  0  0
  5  6  4  0  0  0  0
  6  7  4  0  0  0  0
  7  8  4  0  0  0  0
  8  9  1  0  0  0  0
  8 10  4  0  0  0  0
 10 11  4  0  0  0  0
  5 11  4  0  0  0  0
 11 12  1  0  0  0  0
 12 13  1  0  0  0  0
 13 14  1  0  0  0  0
 14 15  1  0  0  0  0
 15 16  1  0  0  0  0
 12 16  1  0  0  0  0
 16 17  1  0  0  0  0
 17 18  1  0  0  0  0
  4 18  1  0  0  0  0
 18 19  2  0  0  0  0
 12 20  1  0  0  0  0
 20 21  4  0  0  0  0
 21 22  1  0  0  0  0
 21 23  4  0  0  0  0
 23 24  4  0  0  0  0
 24 25  4  0  0  0  0
 25 26  4  0  0  0  0
 20 26  4  0  0  0  0
M  END
>  <ID>
1224

>  <PREFERRED_NAME>
flutazolam

>  <CAS_RN>
27060-91-9

>  <SYNONYMS>
flutazolam
coreminal

>  <URL>
http://drugcentral.org/drugcard/1224/view

$$$$
