fondaparinux
  -INDIGO-06102311002D

 91 95  0  0  1  0  0  0  0  0999 V2000
   -4.2868   -7.4250    0.0000 C   0  0  0  0  0  0  0  0  0  0  0  0
   -5.0013   -7.8375    0.0000 O   0  0  0  0  0  0  0  0  0  0  0  0
   -5.0013   -8.6625    0.0000 C   0  0  1  0  0  0  0  0  0  0  0  0
   -4.2868   -9.0750    0.0000 O   0  0  0  0  0  0  0  0  0  0  0  0
   -4.2868   -9.9000    0.0000 C   0  0  2  0  0  0  0  0  0  0  0  0
   -3.5724  -10.3125    0.0000 C   0  0  0  0  0  0  0  0  0  0  0  0
   -3.5724  -11.1375    0.0000 O   0  0  0  0  0  0  0  0  0  0  0  0
   -2.8579  -11.5500    0.0000 S   0  0  0  0  0  0  0  0  0  0  0  0
   -3.2704  -12.2645    0.0000 O   0  0  0  0  0  0  0  0  0  0  0  0
   -2.4454  -10.8355    0.0000 O   0  0  0  0  0  0  0  0  0  0  0  0
   -2.1434  -11.9625    0.0000 O   0  0  0  0  0  0  0  0  0  0  0  0
   -5.0013  -10.3125    0.0000 C   0  0  1  0  0  0  0  0  0  0  0  0
   -5.0013  -11.1375    0.0000 O   0  0  0  0  0  0  0  0  0  0  0  0
   -5.7158  -11.5500    0.0000 C   0  0  2  0  0  0  0  0  0  0  0  0
   -6.4302  -11.1375    0.0000 O   0  0  0  0  0  0  0  0  0  0  0  0
   -7.1447  -11.5500    0.0000 C   0  0  2  0  0  0  0  0  0  0  0  0
   -7.1447  -12.3750    0.0000 C   0  0  1  0  0  0  0  0  0  0  0  0
   -7.8592  -12.7875    0.0000 O   0  0  0  0  0  0  0  0  0  0  0  0
   -7.8592  -13.6125    0.0000 C   0  0  1  0  0  0  0  0  0  0  0  0
   -7.1447  -14.0250    0.0000 O   0  0  0  0  0  0  0  0  0  0  0  0
   -7.1447  -14.8500    0.0000 C   0  0  2  0  0  0  0  0  0  0  0  0
   -6.4302  -15.2625    0.0000 C   0  0  0  0  0  0  0  0  0  0  0  0
   -5.7158  -14.8500    0.0000 O   0  0  0  0  0  0  0  0  0  0  0  0
   -5.0013  -15.2625    0.0000 S   0  0  0  0  0  0  0  0  0  0  0  0
   -4.2868  -15.6750    0.0000 O   0  0  0  0  0  0  0  0  0  0  0  0
   -5.4138  -15.9770    0.0000 O   0  0  0  0  0  0  0  0  0  0  0  0
   -4.5888  -14.5480    0.0000 O   0  0  0  0  0  0  0  0  0  0  0  0
   -7.8592  -15.2625    0.0000 C   0  0  1  0  0  0  0  0  0  0  0  0
   -7.8592  -16.0875    0.0000 O   0  0  0  0  0  0  0  0  0  0  0  0
   -8.5737  -16.5000    0.0000 C   0  0  2  0  0  0  0  0  0  0  0  0
   -9.2881  -16.0875    0.0000 O   0  0  0  0  0  0  0  0  0  0  0  0
  -10.0026  -16.5000    0.0000 C   0  0  1  0  0  0  0  0  0  0  0  0
  -10.0026  -17.3250    0.0000 C   0  0  1  0  0  0  0  0  0  0  0  0
  -10.7171  -17.7375    0.0000 O   0  0  0  0  0  0  0  0  0  0  0  0
  -10.7171  -18.5625    0.0000 C   0  0  1  0  0  0  0  0  0  0  0  0
  -10.0026  -18.9750    0.0000 O   0  0  0  0  0  0  0  0  0  0  0  0
  -10.0026  -19.8000    0.0000 C   0  0  2  0  0  0  0  0  0  0  0  0
   -9.2881  -20.2125    0.0000 C   0  0  0  0  0  0  0  0  0  0  0  0
   -9.2881  -21.0375    0.0000 O   0  0  0  0  0  0  0  0  0  0  0  0
   -8.5737  -21.4500    0.0000 S   0  0  0  0  0  0  0  0  0  0  0  0
   -8.9862  -22.1645    0.0000 O   0  0  0  0  0  0  0  0  0  0  0  0
   -8.1612  -20.7355    0.0000 O   0  0  0  0  0  0  0  0  0  0  0  0
   -7.8592  -21.8625    0.0000 O   0  0  0  0  0  0  0  0  0  0  0  0
  -10.7171  -20.2125    0.0000 C   0  0  1  0  0  0  0  0  0  0  0  0
  -10.7171  -21.0375    0.0000 O   0  0  0  0  0  0  0  0  0  0  0  0
  -11.4315  -19.8000    0.0000 C   0  0  2  0  0  0  0  0  0  0  0  0
  -12.1460  -20.2125    0.0000 O   0  0  0  0  0  0  0  0  0  0  0  0
  -11.4315  -18.9750    0.0000 C   0  0  1  0  0  0  0  0  0  0  0  0
  -12.1460  -18.5625    0.0000 N   0  0  0  0  0  0  0  0  0  0  0  0
  -12.8605  -18.9750    0.0000 S   0  0  0  0  0  0  0  0  0  0  0  0
  -12.4480  -19.6895    0.0000 O   0  0  0  0  0  0  0  0  0  0  0  0
  -13.5749  -19.3875    0.0000 O   0  0  0  0  0  0  0  0  0  0  0  0
  -13.2730  -18.2605    0.0000 O   0  0  0  0  0  0  0  0  0  0  0  0
   -9.2881  -17.7375    0.0000 C   0  0  2  0  0  0  0  0  0  0  0  0
   -9.2881  -18.5625    0.0000 O   0  0  0  0  0  0  0  0  0  0  0  0
   -8.5737  -17.3250    0.0000 C   0  0  1  0  0  0  0  0  0  0  0  0
   -7.8592  -17.7375    0.0000 O   0  0  0  0  0  0  0  0  0  0  0  0
  -10.7171  -16.0875    0.0000 C   0  0  0  0  0  0  0  0  0  0  0  0
  -11.4315  -16.5000    0.0000 O   0  0  0  0  0  0  0  0  0  0  0  0
  -10.7171  -15.2625    0.0000 O   0  0  0  0  0  0  0  0  0  0  0  0
   -8.5737  -14.8500    0.0000 C   0  0  2  0  0  0  0  0  0  0  0  0
   -9.2881  -15.2625    0.0000 O   0  0  0  0  0  0  0  0  0  0  0  0
  -10.0026  -14.8500    0.0000 S   0  0  0  0  0  0  0  0  0  0  0  0
   -9.5901  -14.1355    0.0000 O   0  0  0  0  0  0  0  0  0  0  0  0
  -10.4151  -15.5645    0.0000 O   0  0  0  0  0  0  0  0  0  0  0  0
  -10.7171  -14.4375    0.0000 O   0  0  0  0  0  0  0  0  0  0  0  0
   -8.5737  -14.0250    0.0000 C   0  0  1  0  0  0  0  0  0  0  0  0
   -9.2881  -13.6125    0.0000 N   0  0  0  0  0  0  0  0  0  0  0  0
   -9.2881  -12.7875    0.0000 S   0  0  0  0  0  0  0  0  0  0  0  0
  -10.1131  -12.7875    0.0000 O   0  0  0  0  0  0  0  0  0  0  0  0
   -9.2881  -11.9625    0.0000 O   0  0  0  0  0  0  0  0  0  0  0  0
   -8.4631  -12.7875    0.0000 O   0  0  0  0  0  0  0  0  0  0  0  0
   -6.4302  -12.7875    0.0000 C   0  0  2  0  0  0  0  0  0  0  0  0
   -6.4302  -13.6125    0.0000 O   0  0  0  0  0  0  0  0  0  0  0  0
   -5.7158  -12.3750    0.0000 C   0  0  1  0  0  0  0  0  0  0  0  0
   -5.0013  -12.7875    0.0000 O   0  0  0  0  0  0  0  0  0  0  0  0
   -4.2868  -12.3750    0.0000 S   0  0  0  0  0  0  0  0  0  0  0  0
   -4.6993  -11.6605    0.0000 O   0  0  0  0  0  0  0  0  0  0  0  0
   -3.8743  -13.0895    0.0000 O   0  0  0  0  0  0  0  0  0  0  0  0
   -3.5724  -11.9625    0.0000 O   0  0  0  0  0  0  0  0  0  0  0  0
   -7.8592  -11.1375    0.0000 C   0  0  0  0  0  0  0  0  0  0  0  0
   -7.8592  -10.3125    0.0000 O   0  0  0  0  0  0  0  0  0  0  0  0
   -8.5737  -11.5500    0.0000 O   0  0  0  0  0  0  0  0  0  0  0  0
   -5.7158   -9.9000    0.0000 C   0  0  2  0  0  0  0  0  0  0  0  0
   -6.4302  -10.3125    0.0000 O   0  0  0  0  0  0  0  0  0  0  0  0
   -5.7158   -9.0750    0.0000 C   0  0  1  0  0  0  0  0  0  0  0  0
   -6.4302   -8.6625    0.0000 N   0  0  0  0  0  0  0  0  0  0  0  0
   -6.4302   -7.8375    0.0000 S   0  0  0  0  0  0  0  0  0  0  0  0
   -6.4302   -7.0125    0.0000 O   0  0  0  0  0  0  0  0  0  0  0  0
   -5.6052   -7.8375    0.0000 O   0  0  0  0  0  0  0  0  0  0  0  0
   -7.2552   -7.8375    0.0000 O   0  0  0  0  0  0  0  0  0  0  0  0
  1  2  1  0  0  0  0
  3  2  1  1  0  0  0
  3  4  1  0  0  0  0
  4  5  1  0  0  0  0
  5  6  1  6  0  0  0
  6  7  1  0  0  0  0
  7  8  1  0  0  0  0
  8  9  1  0  0  0  0
  8 10  2  0  0  0  0
  8 11  2  0  0  0  0
  5 12  1  0  0  0  0
 12 13  1  1  0  0  0
 14 13  1  1  0  0  0
 14 15  1  0  0  0  0
 15 16  1  0  0  0  0
 16 17  1  0  0  0  0
 17 18  1  6  0  0  0
 19 18  1  1  0  0  0
 19 20  1  0  0  0  0
 20 21  1  0  0  0  0
 21 22  1  6  0  0  0
 22 23  1  0  0  0  0
 23 24  1  0  0  0  0
 24 25  1  0  0  0  0
 24 26  2  0  0  0  0
 24 27  2  0  0  0  0
 21 28  1  0  0  0  0
 28 29  1  1  0  0  0
 30 29  1  1  0  0  0
 30 31  1  0  0  0  0
 31 32  1  0  0  0  0
 32 33  1  0  0  0  0
 33 34  1  6  0  0  0
 35 34  1  1  0  0  0
 35 36  1  0  0  0  0
 36 37  1  0  0  0  0
 37 38  1  6  0  0  0
 38 39  1  0  0  0  0
 39 40  1  0  0  0  0
 40 41  1  0  0  0  0
 40 42  2  0  0  0  0
 40 43  2  0  0  0  0
 37 44  1  0  0  0  0
 44 45  1  1  0  0  0
 44 46  1  0  0  0  0
 46 47  1  6  0  0  0
 46 48  1  0  0  0  0
 35 48  1  0  0  0  0
 48 49  1  1  0  0  0
 49 50  1  0  0  0  0
 50 51  1  0  0  0  0
 50 52  2  0  0  0  0
 50 53  2  0  0  0  0
 33 54  1  0  0  0  0
 54 55  1  1  0  0  0
 54 56  1  0  0  0  0
 30 56  1  0  0  0  0
 56 57  1  6  0  0  0
 32 58  1  1  0  0  0
 58 59  1  0  0  0  0
 58 60  2  0  0  0  0
 28 61  1  0  0  0  0
 61 62  1  6  0  0  0
 62 63  1  0  0  0  0
 63 64  1  0  0  0  0
 63 65  2  0  0  0  0
 63 66  2  0  0  0  0
 61 67  1  0  0  0  0
 19 67  1  0  0  0  0
 67 68  1  1  0  0  0
 68 69  1  0  0  0  0
 69 70  1  0  0  0  0
 69 71  2  0  0  0  0
 69 72  2  0  0  0  0
 17 73  1  0  0  0  0
 73 74  1  1  0  0  0
 73 75  1  0  0  0  0
 14 75  1  0  0  0  0
 75 76  1  6  0  0  0
 76 77  1  0  0  0  0
 77 78  1  0  0  0  0
 77 79  2  0  0  0  0
 77 80  2  0  0  0  0
 16 81  1  6  0  0  0
 81 82  1  0  0  0  0
 81 83  2  0  0  0  0
 12 84  1  0  0  0  0
 84 85  1  6  0  0  0
 84 86  1  0  0  0  0
  3 86  1  0  0  0  0
 86 87  1  1  0  0  0
 87 88  1  0  0  0  0
 88 89  1  0  0  0  0
 88 90  2  0  0  0  0
 88 91  2  0  0  0  0
M  END
>  <ID>
1236

>  <PREFERRED_NAME>
fondaparinux

>  <CAS_RN>
104993-28-4

>  <SYNONYMS>
fondaparinux
fondaparin
heparin pentasaccharide
fondaparinux sodium
arixtra
fondaparin sodium

>  <URL>
http://drugcentral.org/drugcard/1236/view

$$$$
