fosfluconazole
  -INDIGO-06102311002D

 26 28  0  0  0  0  0  0  0  0999 V2000
    4.5568    3.2615    0.0000 O   0  0  0  0  0  0  0  0  0  0  0  0
    3.7318    3.2615    0.0000 P   0  0  0  0  0  0  0  0  0  0  0  0
    3.7318    4.0865    0.0000 O   0  0  0  0  0  0  0  0  0  0  0  0
    2.9068    3.2615    0.0000 O   0  0  0  0  0  0  0  0  0  0  0  0
    3.7318    2.4365    0.0000 O   0  0  0  0  0  0  0  0  0  0  0  0
    3.0173    2.0240    0.0000 C   0  0  0  0  0  0  0  0  0  0  0  0
    2.3029    1.6115    0.0000 C   0  0  0  0  0  0  0  0  0  0  0  0
    2.3029    0.7865    0.0000 N   0  0  0  0  0  0  0  0  0  0  0  0
    2.9703    0.3016    0.0000 C   0  0  0  0  0  0  0  0  0  0  0  0
    2.7154   -0.4830    0.0000 N   0  0  0  0  0  0  0  0  0  0  0  0
    1.8904   -0.4830    0.0000 C   0  0  0  0  0  0  0  0  0  0  0  0
    1.6354    0.3016    0.0000 N   0  0  0  0  0  0  0  0  0  0  0  0
    2.6048    2.7385    0.0000 C   0  0  0  0  0  0  0  0  0  0  0  0
    1.7798    2.7385    0.0000 N   0  0  0  0  0  0  0  0  0  0  0  0
    1.2949    2.0711    0.0000 C   0  0  0  0  0  0  0  0  0  0  0  0
    0.5103    2.3260    0.0000 N   0  0  0  0  0  0  0  0  0  0  0  0
    0.5103    3.1510    0.0000 C   0  0  0  0  0  0  0  0  0  0  0  0
    1.2949    3.4059    0.0000 N   0  0  0  0  0  0  0  0  0  0  0  0
    3.4298    1.3096    0.0000 C   0  0  0  0  0  0  0  0  0  0  0  0
    4.2548    1.3096    0.0000 C   0  0  0  0  0  0  0  0  0  0  0  0
    4.6673    2.0240    0.0000 F   0  0  0  0  0  0  0  0  0  0  0  0
    4.6673    0.5951    0.0000 C   0  0  0  0  0  0  0  0  0  0  0  0
    4.2548   -0.1194    0.0000 C   0  0  0  0  0  0  0  0  0  0  0  0
    4.6673   -0.8339    0.0000 F   0  0  0  0  0  0  0  0  0  0  0  0
    3.4298   -0.1194    0.0000 C   0  0  0  0  0  0  0  0  0  0  0  0
    3.0173    0.5951    0.0000 C   0  0  0  0  0  0  0  0  0  0  0  0
  1  2  1  0  0  0  0
  2  3  1  0  0  0  0
  2  4  2  0  0  0  0
  2  5  1  0  0  0  0
  5  6  1  0  0  0  0
  6  7  1  0  0  0  0
  7  8  1  0  0  0  0
  8  9  4  0  0  0  0
  9 10  4  0  0  0  0
 10 11  4  0  0  0  0
 11 12  4  0  0  0  0
  8 12  4  0  0  0  0
  6 13  1  0  0  0  0
 13 14  1  0  0  0  0
 14 15  4  0  0  0  0
 15 16  4  0  0  0  0
 16 17  4  0  0  0  0
 17 18  4  0  0  0  0
 14 18  4  0  0  0  0
  6 19  1  0  0  0  0
 19 20  4  0  0  0  0
 20 21  1  0  0  0  0
 20 22  4  0  0  0  0
 22 23  4  0  0  0  0
 23 24  1  0  0  0  0
 23 25  4  0  0  0  0
 25 26  4  0  0  0  0
 19 26  4  0  0  0  0
M  END
>  <ID>
1242

>  <PREFERRED_NAME>
fosfluconazole

>  <CAS_RN>
194798-83-9

>  <SYNONYMS>
fosfluconazole
prodif

>  <URL>
http://drugcentral.org/drugcard/1242/view

$$$$
