furalazine
  -INDIGO-06102310552D

 17 18  0  0  0  0  0  0  0  0999 V2000
    2.1434    9.2411    0.0000 N   0  0  0  0  0  0  0  0  0  0  0  0
    2.1434    8.4161    0.0000 C   0  0  0  0  0  0  0  0  0  0  0  0
    2.8579    8.0036    0.0000 N   0  0  0  0  0  0  0  0  0  0  0  0
    2.8579    7.1786    0.0000 N   0  0  0  0  0  0  0  0  0  0  0  0
    2.1434    6.7661    0.0000 C   0  0  0  0  0  0  0  0  0  0  0  0
    2.1434    5.9411    0.0000 C   0  0  0  0  0  0  0  0  0  0  0  0
    1.4289    5.5286    0.0000 C   0  0  0  0  0  0  0  0  0  0  0  0
    1.4289    4.7036    0.0000 C   0  0  0  0  0  0  0  0  0  0  0  0
    2.0964    4.2187    0.0000 C   0  0  0  0  0  0  0  0  0  0  0  0
    1.8414    3.4340    0.0000 C   0  0  0  0  0  0  0  0  0  0  0  0
    1.0164    3.4340    0.0000 C   0  0  0  0  0  0  0  0  0  0  0  0
    0.7615    4.2187    0.0000 O   0  0  0  0  0  0  0  0  0  0  0  0
    0.5315    2.7666    0.0000 N   0  0  0  0  0  0  0  0  0  0  0  0
    0.8671    2.0129    0.0000 O   0  0  0  0  0  0  0  0  0  0  0  0
   -0.2890    2.8528    0.0000 O   0  0  0  0  0  0  0  0  0  0  0  0
    1.4289    7.1786    0.0000 C   0  0  0  0  0  0  0  0  0  0  0  0
    1.4289    8.0036    0.0000 N   0  0  0  0  0  0  0  0  0  0  0  0
  1  2  1  0  0  0  0
  2  3  4  0  0  0  0
  3  4  4  0  0  0  0
  4  5  4  0  0  0  0
  5  6  1  0  0  0  0
  6  7  2  0  0  0  0
  7  8  1  0  0  0  0
  8  9  4  0  0  0  0
  9 10  4  0  0  0  0
 10 11  4  0  0  0  0
 11 12  4  0  0  0  0
  8 12  4  0  0  0  0
 11 13  1  0  0  0  0
 13 14  1  0  0  0  0
 13 15  2  0  0  0  0
  5 16  4  0  0  0  0
 16 17  4  0  0  0  0
  2 17  4  0  0  0  0
M  CHG  2  13   1  14  -1
M  END
>  <ID>
70

>  <PREFERRED_NAME>
furalazine

>  <CAS_RN>
1789-26-0

>  <SYNONYMS>
furalazine
furatrizine
nifuralazine
furalazin
panfuran

>  <URL>
http://drugcentral.org/drugcard/70/view

$$$$
