furaltadone
  -INDIGO-06102311002D

 23 25  0  0  0  0  0  0  0  0999 V2000
    4.8137   -2.9374    0.0000 O   0  0  0  0  0  0  0  0  0  0  0  0
    4.0992   -3.3499    0.0000 N   0  0  0  0  0  0  0  0  0  0  0  0
    3.3847   -2.9374    0.0000 O   0  0  0  0  0  0  0  0  0  0  0  0
    4.0992   -4.1749    0.0000 C   0  0  0  0  0  0  0  0  0  0  0  0
    4.7666   -4.6598    0.0000 C   0  0  0  0  0  0  0  0  0  0  0  0
    4.5117   -5.4445    0.0000 C   0  0  0  0  0  0  0  0  0  0  0  0
    3.6867   -5.4445    0.0000 C   0  0  0  0  0  0  0  0  0  0  0  0
    3.4317   -4.6598    0.0000 O   0  0  0  0  0  0  0  0  0  0  0  0
    3.2018   -6.1119    0.0000 C   0  0  0  0  0  0  0  0  0  0  0  0
    3.5373   -6.8656    0.0000 N   0  0  0  0  0  0  0  0  0  0  0  0
    3.0524   -7.5330    0.0000 N   0  0  0  0  0  0  0  0  0  0  0  0
    3.3073   -8.3176    0.0000 C   0  0  0  0  0  0  0  0  0  0  0  0
    2.6399   -8.8026    0.0000 C   0  0  0  0  0  0  0  0  0  0  0  0
    2.6399   -9.6276    0.0000 C   0  0  0  0  0  0  0  0  0  0  0  0
    1.9254  -10.0401    0.0000 N   0  0  0  0  0  0  0  0  0  0  0  0
    1.9254  -10.8651    0.0000 C   0  0  0  0  0  0  0  0  0  0  0  0
    1.2110  -11.2776    0.0000 C   0  0  0  0  0  0  0  0  0  0  0  0
    0.4965  -10.8651    0.0000 O   0  0  0  0  0  0  0  0  0  0  0  0
    0.4965  -10.0401    0.0000 C   0  0  0  0  0  0  0  0  0  0  0  0
    1.2110   -9.6276    0.0000 C   0  0  0  0  0  0  0  0  0  0  0  0
    1.9725   -8.3176    0.0000 O   0  0  0  0  0  0  0  0  0  0  0  0
    2.2274   -7.5330    0.0000 C   0  0  0  0  0  0  0  0  0  0  0  0
    1.7425   -6.8656    0.0000 O   0  0  0  0  0  0  0  0  0  0  0  0
  1  2  1  0  0  0  0
  2  3  2  0  0  0  0
  2  4  1  0  0  0  0
  4  5  4  0  0  0  0
  5  6  4  0  0  0  0
  6  7  4  0  0  0  0
  7  8  4  0  0  0  0
  4  8  4  0  0  0  0
  7  9  1  0  0  0  0
  9 10  2  0  0  0  0
 10 11  1  0  0  0  0
 11 12  1  0  0  0  0
 12 13  1  0  0  0  0
 13 14  1  0  0  0  0
 14 15  1  0  0  0  0
 15 16  1  0  0  0  0
 16 17  1  0  0  0  0
 17 18  1  0  0  0  0
 18 19  1  0  0  0  0
 19 20  1  0  0  0  0
 15 20  1  0  0  0  0
 13 21  1  0  0  0  0
 21 22  1  0  0  0  0
 11 22  1  0  0  0  0
 22 23  2  0  0  0  0
M  CHG  2   1  -1   2   1
M  END
>  <ID>
1256

>  <PREFERRED_NAME>
furaltadone

>  <CAS_RN>
139-91-3

>  <SYNONYMS>
furaltadone
furmethanol
furmethonol
furmetonol
medifuran
furaltadon
furantoina
furazolin
furazoline
nitraldone
nitrofurmethone
nitrofurmeton
furaltadone hydrochloride
furaltadone HCl

>  <URL>
http://drugcentral.org/drugcard/1256/view

$$$$
