ganciclovir
  -INDIGO-06102311002D

 18 19  0  0  0  0  0  0  0  0999 V2000
   -1.9237    5.8874    0.0000 N   0  0  0  0  0  0  0  0  0  0  0  0
   -2.4757    5.2743    0.0000 C   0  0  0  0  0  0  0  0  0  0  0  0
   -2.2208    4.4897    0.0000 N   0  0  0  0  0  0  0  0  0  0  0  0
   -2.7728    3.8766    0.0000 C   0  0  0  0  0  0  0  0  0  0  0  0
   -3.5798    4.0481    0.0000 C   0  0  0  0  0  0  0  0  0  0  0  0
   -3.9923    3.3336    0.0000 N   0  0  0  0  0  0  0  0  0  0  0  0
   -3.4402    2.7205    0.0000 C   0  0  0  0  0  0  0  0  0  0  0  0
   -2.6866    3.0561    0.0000 N   0  0  0  0  0  0  0  0  0  0  0  0
   -1.9721    2.6436    0.0000 C   0  0  0  0  0  0  0  0  0  0  0  0
   -1.9721    1.8186    0.0000 O   0  0  0  0  0  0  0  0  0  0  0  0
   -1.2576    1.4061    0.0000 C   0  0  0  0  0  0  0  0  0  0  0  0
   -1.2576    0.5811    0.0000 C   0  0  0  0  0  0  0  0  0  0  0  0
   -0.5432    0.1686    0.0000 O   0  0  0  0  0  0  0  0  0  0  0  0
   -0.5432    1.8186    0.0000 C   0  0  0  0  0  0  0  0  0  0  0  0
    0.1713    1.4061    0.0000 O   0  0  0  0  0  0  0  0  0  0  0  0
   -3.8347    4.8327    0.0000 C   0  0  0  0  0  0  0  0  0  0  0  0
   -4.6417    5.0043    0.0000 O   0  0  0  0  0  0  0  0  0  0  0  0
   -3.2827    5.4458    0.0000 N   0  0  0  0  0  0  0  0  0  0  0  0
  1  2  1  0  0  0  0
  2  3  2  0  0  0  0
  3  4  1  0  0  0  0
  4  5  4  0  0  0  0
  5  6  4  0  0  0  0
  6  7  4  0  0  0  0
  7  8  4  0  0  0  0
  4  8  4  0  0  0  0
  8  9  1  0  0  0  0
  9 10  1  0  0  0  0
 10 11  1  0  0  0  0
 11 12  1  0  0  0  0
 12 13  1  0  0  0  0
 11 14  1  0  0  0  0
 14 15  1  0  0  0  0
  5 16  1  0  0  0  0
 16 17  2  0  0  0  0
 16 18  1  0  0  0  0
  2 18  1  0  0  0  0
M  END
>  <ID>
1277

>  <PREFERRED_NAME>
ganciclovir

>  <CAS_RN>
82410-32-0

>  <SYNONYMS>
ganciclovir
denosine
gancyclovir
hydroxyacyclovir
natclovir
ganciclovir sodium

>  <URL>
http://drugcentral.org/drugcard/1277/view

$$$$
