gitoformate
  -INDIGO-06102311002D

 65 72  0  0  1  0  0  0  0  0999 V2000
    8.7724   -7.7369    0.0000 C   0  0  0  0  0  0  0  0  0  0  0  0
    9.0527   -6.9609    0.0000 C   0  0  1  0  0  0  0  0  0  0  0  0
    8.5208   -6.3302    0.0000 O   0  0  0  0  0  0  0  0  0  0  0  0
    8.8011   -5.5543    0.0000 C   0  0  2  0  0  0  0  0  0  0  0  0
    9.6133   -5.4091    0.0000 C   0  0  0  0  0  0  0  0  0  0  0  0
   10.1451   -6.0398    0.0000 C   0  0  2  0  0  0  0  0  0  0  0  0
   10.9572   -5.8946    0.0000 O   0  0  0  0  0  0  0  0  0  0  0  0
   11.4890   -6.5253    0.0000 C   0  0  0  0  0  0  0  0  0  0  0  0
   12.3011   -6.3801    0.0000 O   0  0  0  0  0  0  0  0  0  0  0  0
    9.8648   -6.8157    0.0000 C   0  0  2  0  0  0  0  0  0  0  0  0
   10.3966   -7.4464    0.0000 O   0  0  0  0  0  0  0  0  0  0  0  0
   11.2087   -7.3012    0.0000 C   0  0  0  0  0  0  0  0  0  0  0  0
   11.7405   -7.9319    0.0000 O   0  0  0  0  0  0  0  0  0  0  0  0
    8.2693   -4.9236    0.0000 O   0  0  0  0  0  0  0  0  0  0  0  0
    8.5496   -4.1477    0.0000 C   0  0  1  0  0  0  0  0  0  0  0  0
    8.0178   -3.5170    0.0000 C   0  0  2  0  0  0  0  0  0  0  0  0
    7.2057   -3.6622    0.0000 C   0  0  0  0  0  0  0  0  0  0  0  0
    8.2981   -2.7410    0.0000 O   0  0  0  0  0  0  0  0  0  0  0  0
    9.1102   -2.5958    0.0000 C   0  0  1  0  0  0  0  0  0  0  0  0
    9.6420   -3.2265    0.0000 C   0  0  0  0  0  0  0  0  0  0  0  0
    9.3617   -4.0025    0.0000 C   0  0  1  0  0  0  0  0  0  0  0  0
    9.8936   -4.6332    0.0000 O   0  0  0  0  0  0  0  0  0  0  0  0
   10.7057   -4.4879    0.0000 C   0  0  0  0  0  0  0  0  0  0  0  0
   11.2375   -5.1187    0.0000 O   0  0  0  0  0  0  0  0  0  0  0  0
    9.3905   -1.8199    0.0000 O   0  0  0  0  0  0  0  0  0  0  0  0
    8.8587   -1.1892    0.0000 C   0  0  2  0  0  0  0  0  0  0  0  0
    8.0466   -1.3344    0.0000 C   0  0  1  0  0  0  0  0  0  0  0  0
    7.7663   -2.1103    0.0000 C   0  0  0  0  0  0  0  0  0  0  0  0
    7.5148   -0.7037    0.0000 O   0  0  0  0  0  0  0  0  0  0  0  0
    7.7951    0.0722    0.0000 C   0  0  2  0  0  0  0  0  0  0  0  0
    8.6072    0.2174    0.0000 C   0  0  0  0  0  0  0  0  0  0  0  0
    9.1390   -0.4133    0.0000 C   0  0  2  0  0  0  0  0  0  0  0  0
    9.9511   -0.2681    0.0000 O   0  0  0  0  0  0  0  0  0  0  0  0
   10.2314    0.5079    0.0000 C   0  0  0  0  0  0  0  0  0  0  0  0
   11.0435    0.6531    0.0000 O   0  0  0  0  0  0  0  0  0  0  0  0
    7.2632    0.7029    0.0000 O   0  0  0  0  0  0  0  0  0  0  0  0
    6.4511    0.5577    0.0000 C   0  0  1  0  0  0  0  0  0  0  0  0
    6.1708   -0.2182    0.0000 C   0  0  0  0  0  0  0  0  0  0  0  0
    5.3587   -0.3634    0.0000 C   0  0  0  0  0  0  0  0  0  0  0  0
    4.8269    0.2673    0.0000 C   0  0  1  0  0  0  0  0  0  0  0  0
    4.5466   -0.5086    0.0000 C   0  0  0  0  0  0  0  0  0  0  0  0
    5.1072    1.0432    0.0000 C   0  0  2  0  0  0  0  0  0  0  0  0
    4.5754    1.6739    0.0000 C   0  0  0  0  0  0  0  0  0  0  0  0
    3.7633    1.5287    0.0000 C   0  0  0  0  0  0  0  0  0  0  0  0
    3.4830    0.7528    0.0000 C   0  0  2  0  0  0  0  0  0  0  0  0
    4.0148    0.1221    0.0000 C   0  0  2  0  0  0  0  0  0  0  0  0
    3.7345   -0.6539    0.0000 C   0  0  0  0  0  0  0  0  0  0  0  0
    2.9224   -0.7991    0.0000 C   0  0  0  0  0  0  0  0  0  0  0  0
    2.3905   -0.1684    0.0000 C   0  0  2  0  0  0  0  0  0  0  0  0
    2.0307   -0.9107    0.0000 C   0  0  0  0  0  0  0  0  0  0  0  0
    1.5660   -0.1416    0.0000 C   0  0  2  0  0  0  0  0  0  0  0  0
    1.3367    0.6509    0.0000 C   0  0  2  0  0  0  0  0  0  0  0  0
    2.0195    1.1139    0.0000 C   0  0  0  0  0  0  0  0  0  0  0  0
    2.6708    0.6076    0.0000 C   0  0  2  0  0  0  0  0  0  0  0  0
    2.8685    1.4085    0.0000 O   0  0  0  0  0  0  0  0  0  0  0  0
    0.5607    0.9312    0.0000 O   0  0  0  0  0  0  0  0  0  0  0  0
    0.4155    1.7434    0.0000 C   0  0  0  0  0  0  0  0  0  0  0  0
   -0.3604    2.0237    0.0000 O   0  0  0  0  0  0  0  0  0  0  0  0
    1.0596   -0.7929    0.0000 C   0  0  0  0  0  0  0  0  0  0  0  0
    0.2351   -0.7661    0.0000 C   0  0  0  0  0  0  0  0  0  0  0  0
   -0.0452   -1.5420    0.0000 C   0  0  0  0  0  0  0  0  0  0  0  0
   -0.8377   -1.7713    0.0000 O   0  0  0  0  0  0  0  0  0  0  0  0
    0.6061   -2.0484    0.0000 O   0  0  0  0  0  0  0  0  0  0  0  0
    1.2889   -1.5854    0.0000 C   0  0  0  0  0  0  0  0  0  0  0  0
    5.9193    1.1884    0.0000 C   0  0  0  0  0  0  0  0  0  0  0  0
  2  1  1  1  0  0  0
  2  3  1  0  0  0  0
  3  4  1  0  0  0  0
  4  5  1  0  0  0  0
  5  6  1  0  0  0  0
  6  7  1  6  0  0  0
  7  8  1  0  0  0  0
  8  9  2  0  0  0  0
  6 10  1  0  0  0  0
  2 10  1  0  0  0  0
 10 11  1  6  0  0  0
 11 12  1  0  0  0  0
 12 13  2  0  0  0  0
  4 14  1  1  0  0  0
 15 14  1  1  0  0  0
 15 16  1  0  0  0  0
 16 17  1  6  0  0  0
 16 18  1  0  0  0  0
 18 19  1  0  0  0  0
 19 20  1  0  0  0  0
 20 21  1  0  0  0  0
 15 21  1  0  0  0  0
 21 22  1  1  0  0  0
 22 23  1  0  0  0  0
 23 24  2  0  0  0  0
 19 25  1  6  0  0  0
 26 25  1  6  0  0  0
 26 27  1  0  0  0  0
 27 28  1  1  0  0  0
 27 29  1  0  0  0  0
 29 30  1  0  0  0  0
 30 31  1  0  0  0  0
 31 32  1  0  0  0  0
 26 32  1  0  0  0  0
 32 33  1  6  0  0  0
 33 34  1  0  0  0  0
 34 35  2  0  0  0  0
 30 36  1  1  0  0  0
 37 36  1  1  0  0  0
 37 38  1  0  0  0  0
 38 39  1  0  0  0  0
 39 40  1  0  0  0  0
 40 41  1  1  0  0  0
 40 42  1  0  0  0  0
 42 43  1  6  0  0  0
 43 44  1  0  0  0  0
 45 44  1  6  0  0  0
 45 46  1  0  0  0  0
 40 46  1  0  0  0  0
 46 47  1  1  0  0  0
 47 48  1  0  0  0  0
 48 49  1  0  0  0  0
 49 50  1  1  0  0  0
 49 51  1  0  0  0  0
 51 52  1  0  0  0  0
 52 53  1  0  0  0  0
 53 54  1  0  0  0  0
 45 54  1  0  0  0  0
 49 54  1  0  0  0  0
 54 55  1  1  0  0  0
 52 56  1  1  0  0  0
 56 57  1  0  0  0  0
 57 58  2  0  0  0  0
 51 59  1  1  0  0  0
 59 60  2  0  0  0  0
 60 61  1  0  0  0  0
 61 62  2  0  0  0  0
 61 63  1  0  0  0  0
 63 64  1  0  0  0  0
 59 64  1  0  0  0  0
 42 65  1  0  0  0  0
 37 65  1  0  0  0  0
M  END
>  <ID>
1296

>  <PREFERRED_NAME>
gitoformate

>  <CAS_RN>
10176-39-3

>  <SYNONYMS>
gitoformate
formiloxin
formiloxine
pentaformylgitoxin

>  <URL>
http://drugcentral.org/drugcard/1296/view

$$$$
