glasdegib
  -INDIGO-06102311212D

 28 31  0  0  1  0  0  0  0  0999 V2000
   -1.4534   -2.1269    0.0000 C   0  0  0  0  0  0  0  0  0  0  0  0
   -1.8659   -1.4124    0.0000 N   0  0  0  0  0  0  0  0  0  0  0  0
   -2.6909   -1.4124    0.0000 C   0  0  0  0  0  0  0  0  0  0  0  0
   -3.1034   -0.6979    0.0000 C   0  0  0  0  0  0  0  0  0  0  0  0
   -2.6909    0.0165    0.0000 C   0  0  2  0  0  0  0  0  0  0  0  0
   -1.8659    0.0165    0.0000 C   0  0  0  0  0  0  0  0  0  0  0  0
   -1.4534   -0.6979    0.0000 C   0  0  2  0  0  0  0  0  0  0  0  0
   -0.6284   -0.6979    0.0000 C   0  0  0  0  0  0  0  0  0  0  0  0
   -0.1435   -1.3654    0.0000 N   0  0  0  0  0  0  0  0  0  0  0  0
    0.6411   -1.1104    0.0000 C   0  0  0  0  0  0  0  0  0  0  0  0
    0.6411   -0.2854    0.0000 C   0  0  0  0  0  0  0  0  0  0  0  0
   -0.1435   -0.0305    0.0000 N   0  0  0  0  0  0  0  0  0  0  0  0
    1.3556    0.1271    0.0000 C   0  0  0  0  0  0  0  0  0  0  0  0
    2.0701   -0.2854    0.0000 C   0  0  0  0  0  0  0  0  0  0  0  0
    2.0701   -1.1104    0.0000 C   0  0  0  0  0  0  0  0  0  0  0  0
    1.3556   -1.5229    0.0000 C   0  0  0  0  0  0  0  0  0  0  0  0
   -3.1034    0.7310    0.0000 N   0  0  0  0  0  0  0  0  0  0  0  0
   -2.6909    1.4455    0.0000 C   0  0  0  0  0  0  0  0  0  0  0  0
   -1.8659    1.4455    0.0000 O   0  0  0  0  0  0  0  0  0  0  0  0
   -3.1034    2.1599    0.0000 N   0  0  0  0  0  0  0  0  0  0  0  0
   -2.6909    2.8744    0.0000 C   0  0  0  0  0  0  0  0  0  0  0  0
   -3.1034    3.5889    0.0000 C   0  0  0  0  0  0  0  0  0  0  0  0
   -2.6909    4.3034    0.0000 C   0  0  0  0  0  0  0  0  0  0  0  0
   -1.8659    4.3034    0.0000 C   0  0  0  0  0  0  0  0  0  0  0  0
   -1.4534    3.5889    0.0000 C   0  0  0  0  0  0  0  0  0  0  0  0
   -1.8659    2.8744    0.0000 C   0  0  0  0  0  0  0  0  0  0  0  0
   -1.4534    5.0178    0.0000 C   0  0  0  0  0  0  0  0  0  0  0  0
   -1.0409    5.7323    0.0000 N   0  0  0  0  0  0  0  0  0  0  0  0
  1  2  1  0  0  0  0
  2  3  1  0  0  0  0
  3  4  1  0  0  0  0
  4  5  1  0  0  0  0
  5  6  1  0  0  0  0
  6  7  1  0  0  0  0
  2  7  1  0  0  0  0
  7  8  1  6  0  0  0
  8  9  4  0  0  0  0
  9 10  4  0  0  0  0
 10 11  4  0  0  0  0
 11 12  4  0  0  0  0
  8 12  4  0  0  0  0
 11 13  4  0  0  0  0
 13 14  4  0  0  0  0
 14 15  4  0  0  0  0
 15 16  4  0  0  0  0
 10 16  4  0  0  0  0
  5 17  1  1  0  0  0
 17 18  1  0  0  0  0
 18 19  2  0  0  0  0
 18 20  1  0  0  0  0
 20 21  1  0  0  0  0
 21 22  4  0  0  0  0
 22 23  4  0  0  0  0
 23 24  4  0  0  0  0
 24 25  4  0  0  0  0
 25 26  4  0  0  0  0
 21 26  4  0  0  0  0
 24 27  1  0  0  0  0
 27 28  3  0  0  0  0
M  STY  1   1 DAT
M  SLB  1   1   1
M  SAL   1  1  12
M  SDT   1 MRV_IMPLICIT_H
M  SDD   1     0.0000    0.0000    DA    ALL  1       1
M  SED   1 IMPL_H1
M  END
>  <ID>
5304

>  <PREFERRED_NAME>
glasdegib

>  <CAS_RN>
1095173-27-5

>  <SYNONYMS>
glasdegib
daurismo
PF-04449913

>  <URL>
http://drugcentral.org/drugcard/5304/view

$$$$
