glecaprevir
  -INDIGO-06102311202D

 58 64  0  0  1  0  0  0  0  0999 V2000
    2.1227   -1.9626    0.0000 C   0  0  0  0  0  0  0  0  0  0  0  0
    2.2821   -1.1532    0.0000 C   0  0  0  0  0  0  0  0  0  0  0  0
    3.0916   -1.3126    0.0000 C   0  0  0  0  0  0  0  0  0  0  0  0
    1.4727   -0.9938    0.0000 C   0  0  0  0  0  0  0  0  0  0  0  0
    2.4415   -0.3437    0.0000 C   0  0  2  0  0  0  0  0  0  0  0  0
    1.6608   -0.6104    0.0000 N   0  0  0  0  0  0  0  0  0  0  0  0
    1.0395   -0.0676    0.0000 C   0  0  0  0  0  0  0  0  0  0  0  0
    0.2588   -0.3343    0.0000 O   0  0  0  0  0  0  0  0  0  0  0  0
    1.2068    0.6254    0.0000 O   0  0  0  0  0  0  0  0  0  0  0  0
    1.9796    1.0085    0.0000 C   0  0  2  0  0  0  0  0  0  0  0  0
    1.1606    0.9100    0.0000 C   0  0  0  0  0  0  0  0  0  0  0  0
    0.8137    1.6586    0.0000 C   0  0  0  0  0  0  0  0  0  0  0  0
    1.4185    2.2197    0.0000 C   0  0  0  0  0  0  0  0  0  0  0  0
    2.1391    1.8180    0.0000 C   0  0  1  0  0  0  0  0  0  0  0  0
    2.9198    2.0846    0.0000 O   0  0  0  0  0  0  0  0  0  0  0  0
    3.0792    2.8941    0.0000 C   0  0  0  0  0  0  0  0  0  0  0  0
    3.8599    3.1607    0.0000 C   0  0  0  0  0  0  0  0  0  0  0  0
    4.4812    2.6180    0.0000 C   0  0  0  0  0  0  0  0  0  0  0  0
    5.2619    2.8846    0.0000 C   0  0  0  0  0  0  0  0  0  0  0  0
    5.9043    3.4022    0.0000 F   0  0  0  0  0  0  0  0  0  0  0  0
    4.8637    3.6072    0.0000 F   0  0  0  0  0  0  0  0  0  0  0  0
    5.8832    2.3418    0.0000 C   0  0  0  0  0  0  0  0  0  0  0  0
    6.6639    2.6085    0.0000 N   0  0  0  0  0  0  0  0  0  0  0  0
    7.2852    2.0657    0.0000 C   0  0  0  0  0  0  0  0  0  0  0  0
    8.0659    2.3324    0.0000 C   0  0  0  0  0  0  0  0  0  0  0  0
    8.6872    1.7896    0.0000 C   0  0  0  0  0  0  0  0  0  0  0  0
    8.5278    0.9802    0.0000 C   0  0  0  0  0  0  0  0  0  0  0  0
    7.7471    0.7135    0.0000 C   0  0  0  0  0  0  0  0  0  0  0  0
    7.1258    1.2563    0.0000 C   0  0  0  0  0  0  0  0  0  0  0  0
    6.3451    0.9896    0.0000 N   0  0  0  0  0  0  0  0  0  0  0  0
    5.7238    1.5324    0.0000 C   0  0  0  0  0  0  0  0  0  0  0  0
    4.9431    1.2657    0.0000 O   0  0  0  0  0  0  0  0  0  0  0  0
    4.7837    0.4563    0.0000 C   0  0  2  0  0  0  0  0  0  0  0  0
    5.2068   -0.2519    0.0000 C   0  0  0  0  0  0  0  0  0  0  0  0
    4.6640   -0.8732    0.0000 C   0  0  2  0  0  0  0  0  0  0  0  0
    3.8435   -0.6198    0.0000 N   0  0  0  0  0  0  0  0  0  0  0  0
    4.0030    0.1896    0.0000 C   0  0  0  0  0  0  0  0  0  0  0  0
    3.0628   -0.8865    0.0000 C   0  0  0  0  0  0  0  0  0  0  0  0
    3.4096   -1.6351    0.0000 O   0  0  0  0  0  0  0  0  0  0  0  0
    4.8893   -1.6669    0.0000 C   0  0  0  0  0  0  0  0  0  0  0  0
    4.3147   -2.2588    0.0000 O   0  0  0  0  0  0  0  0  0  0  0  0
    5.6893   -1.8686    0.0000 N   0  0  0  0  0  0  0  0  0  0  0  0
    5.9146   -2.6622    0.0000 C   0  0  2  0  0  0  0  0  0  0  0  0
    6.3978   -3.3309    0.0000 C   0  0  0  0  0  0  0  0  0  0  0  0
    6.7353   -2.5782    0.0000 C   0  0  1  0  0  0  0  0  0  0  0  0
    7.4040   -2.0950    0.0000 C   0  0  0  0  0  0  0  0  0  0  0  0
    7.3200   -1.2743    0.0000 F   0  0  0  0  0  0  0  0  0  0  0  0
    8.1568   -2.4325    0.0000 F   0  0  0  0  0  0  0  0  0  0  0  0
    5.1722   -3.0219    0.0000 C   0  0  0  0  0  0  0  0  0  0  0  0
    4.4894   -2.5588    0.0000 O   0  0  0  0  0  0  0  0  0  0  0  0
    5.1124   -3.8447    0.0000 N   0  0  0  0  0  0  0  0  0  0  0  0
    4.3700   -4.2044    0.0000 S   0  0  0  0  0  0  0  0  0  0  0  0
    4.0103   -3.4620    0.0000 O   0  0  0  0  0  0  0  0  0  0  0  0
    4.7297   -4.9469    0.0000 O   0  0  0  0  0  0  0  0  0  0  0  0
    3.6275   -4.5641    0.0000 C   0  0  0  0  0  0  0  0  0  0  0  0
    3.1444   -3.8954    0.0000 C   0  0  0  0  0  0  0  0  0  0  0  0
    3.8528   -5.3578    0.0000 C   0  0  0  0  0  0  0  0  0  0  0  0
    3.0528   -5.1561    0.0000 C   0  0  0  0  0  0  0  0  0  0  0  0
  1  2  1  0  0  0  0
  2  3  1  0  0  0  0
  2  4  1  0  0  0  0
  5  2  1  1  0  0  0
  5  6  1  0  0  0  0
  6  7  1  0  0  0  0
  7  8  2  0  0  0  0
  7  9  1  0  0  0  0
  9 10  1  0  0  0  0
 10 11  1  1  0  0  0
 11 12  1  0  0  0  0
 12 13  1  0  0  0  0
 14 13  1  1  0  0  0
 10 14  1  0  0  0  0
 14 15  1  0  0  0  0
 15 16  1  0  0  0  0
 16 17  1  0  0  0  0
 17 18  2  0  0  0  0
 18 19  1  0  0  0  0
 19 20  1  0  0  0  0
 19 21  1  0  0  0  0
 19 22  1  0  0  0  0
 22 23  4  0  0  0  0
 23 24  4  0  0  0  0
 24 25  4  0  0  0  0
 25 26  4  0  0  0  0
 26 27  4  0  0  0  0
 27 28  4  0  0  0  0
 28 29  4  0  0  0  0
 24 29  4  0  0  0  0
 29 30  4  0  0  0  0
 30 31  4  0  0  0  0
 22 31  4  0  0  0  0
 31 32  1  0  0  0  0
 32 33  1  0  0  0  0
 33 34  1  6  0  0  0
 34 35  1  0  0  0  0
 35 36  1  0  0  0  0
 36 37  1  0  0  0  0
 33 37  1  0  0  0  0
 36 38  1  0  0  0  0
  5 38  1  0  0  0  0
 38 39  2  0  0  0  0
 35 40  1  1  0  0  0
 40 41  2  0  0  0  0
 40 42  1  0  0  0  0
 43 42  1  1  0  0  0
 43 44  1  0  0  0  0
 44 45  1  0  0  0  0
 43 45  1  0  0  0  0
 45 46  1  6  0  0  0
 46 47  1  0  0  0  0
 46 48  1  0  0  0  0
 43 49  1  6  0  0  0
 49 50  2  0  0  0  0
 49 51  1  0  0  0  0
 51 52  1  0  0  0  0
 52 53  2  0  0  0  0
 52 54  2  0  0  0  0
 52 55  1  0  0  0  0
 55 56  1  0  0  0  0
 55 57  1  0  0  0  0
 57 58  1  0  0  0  0
 55 58  1  0  0  0  0
M  END
>  <ID>
5243

>  <PREFERRED_NAME>
glecaprevir

>  <CAS_RN>
1365970-03-1

>  <SYNONYMS>
glecaprevir
ABT-493
A-1282576.0

>  <URL>
http://drugcentral.org/drugcard/5243/view

$$$$
