gliclazide
  -INDIGO-06102311002D

 22 24  0  0  0  0  0  0  0  0999 V2000
   -3.3404   -4.5418    0.0000 C   0  0  0  0  0  0  0  0  0  0  0  0
   -2.9279   -3.8273    0.0000 C   0  0  0  0  0  0  0  0  0  0  0  0
   -3.3404   -3.1128    0.0000 C   0  0  0  0  0  0  0  0  0  0  0  0
   -2.9279   -2.3984    0.0000 C   0  0  0  0  0  0  0  0  0  0  0  0
   -2.1029   -2.3984    0.0000 C   0  0  0  0  0  0  0  0  0  0  0  0
   -1.6904   -3.1128    0.0000 C   0  0  0  0  0  0  0  0  0  0  0  0
   -2.1029   -3.8273    0.0000 C   0  0  0  0  0  0  0  0  0  0  0  0
   -1.6904   -1.6839    0.0000 S   0  0  0  0  0  0  0  0  0  0  0  0
   -0.9759   -2.0964    0.0000 O   0  0  0  0  0  0  0  0  0  0  0  0
   -2.4048   -1.2714    0.0000 O   0  0  0  0  0  0  0  0  0  0  0  0
   -1.2779   -0.9694    0.0000 N   0  0  0  0  0  0  0  0  0  0  0  0
   -0.4529   -0.9694    0.0000 C   0  0  0  0  0  0  0  0  0  0  0  0
   -0.0404   -1.6839    0.0000 O   0  0  0  0  0  0  0  0  0  0  0  0
   -0.0404   -0.2549    0.0000 N   0  0  0  0  0  0  0  0  0  0  0  0
    0.7846   -0.2549    0.0000 N   0  0  0  0  0  0  0  0  0  0  0  0
    1.2695    0.4125    0.0000 C   0  0  0  0  0  0  0  0  0  0  0  0
    2.0542    0.1576    0.0000 C   0  0  0  0  0  0  0  0  0  0  0  0
    2.8388    0.4125    0.0000 C   0  0  0  0  0  0  0  0  0  0  0  0
    3.3237   -0.2549    0.0000 C   0  0  0  0  0  0  0  0  0  0  0  0
    2.8388   -0.9224    0.0000 C   0  0  0  0  0  0  0  0  0  0  0  0
    2.0542   -0.6674    0.0000 C   0  0  0  0  0  0  0  0  0  0  0  0
    1.2695   -0.9224    0.0000 C   0  0  0  0  0  0  0  0  0  0  0  0
  1  2  1  0  0  0  0
  2  3  4  0  0  0  0
  3  4  4  0  0  0  0
  4  5  4  0  0  0  0
  5  6  4  0  0  0  0
  6  7  4  0  0  0  0
  2  7  4  0  0  0  0
  5  8  1  0  0  0  0
  8  9  2  0  0  0  0
  8 10  2  0  0  0  0
  8 11  1  0  0  0  0
 11 12  1  0  0  0  0
 12 13  2  0  0  0  0
 12 14  1  0  0  0  0
 14 15  1  0  0  0  0
 15 16  1  0  0  0  0
 16 17  1  0  0  0  0
 17 18  1  0  0  0  0
 18 19  1  0  0  0  0
 19 20  1  0  0  0  0
 20 21  1  0  0  0  0
 17 21  1  0  0  0  0
 21 22  1  0  0  0  0
 15 22  1  0  0  0  0
M  END
>  <ID>
1299

>  <PREFERRED_NAME>
gliclazide

>  <CAS_RN>
21187-98-4

>  <SYNONYMS>
gliclazide
diabezidum
diabrezide
diabyl
diaprel
glimicron
glinormax
glyzide
gliclazid
dizalid
S 1702

>  <URL>
http://drugcentral.org/drugcard/1299/view

$$$$
