glisoxepide
  -INDIGO-06102311002D

 31 33  0  0  0  0  0  0  0  0999 V2000
    2.6419   -4.0622    0.0000 C   0  0  0  0  0  0  0  0  0  0  0  0
    2.9774   -4.8158    0.0000 C   0  0  0  0  0  0  0  0  0  0  0  0
    3.7844   -4.9874    0.0000 C   0  0  0  0  0  0  0  0  0  0  0  0
    3.8706   -5.8078    0.0000 C   0  0  0  0  0  0  0  0  0  0  0  0
    3.1170   -6.1434    0.0000 N   0  0  0  0  0  0  0  0  0  0  0  0
    2.5649   -5.5303    0.0000 O   0  0  0  0  0  0  0  0  0  0  0  0
    4.5851   -6.2203    0.0000 C   0  0  0  0  0  0  0  0  0  0  0  0
    4.5851   -7.0453    0.0000 O   0  0  0  0  0  0  0  0  0  0  0  0
    5.2996   -5.8078    0.0000 N   0  0  0  0  0  0  0  0  0  0  0  0
    6.0140   -6.2203    0.0000 C   0  0  0  0  0  0  0  0  0  0  0  0
    6.7285   -5.8078    0.0000 C   0  0  0  0  0  0  0  0  0  0  0  0
    7.4430   -6.2203    0.0000 C   0  0  0  0  0  0  0  0  0  0  0  0
    8.1575   -5.8078    0.0000 C   0  0  0  0  0  0  0  0  0  0  0  0
    8.8719   -6.2203    0.0000 C   0  0  0  0  0  0  0  0  0  0  0  0
    8.8719   -7.0453    0.0000 C   0  0  0  0  0  0  0  0  0  0  0  0
    8.1575   -7.4578    0.0000 C   0  0  0  0  0  0  0  0  0  0  0  0
    7.4430   -7.0453    0.0000 C   0  0  0  0  0  0  0  0  0  0  0  0
    9.5864   -7.4578    0.0000 S   0  0  0  0  0  0  0  0  0  0  0  0
    9.1739   -8.1723    0.0000 O   0  0  0  0  0  0  0  0  0  0  0  0
    9.9989   -6.7434    0.0000 O   0  0  0  0  0  0  0  0  0  0  0  0
   10.3009   -7.8703    0.0000 N   0  0  0  0  0  0  0  0  0  0  0  0
   10.3009   -8.6953    0.0000 C   0  0  0  0  0  0  0  0  0  0  0  0
    9.5864   -9.1078    0.0000 O   0  0  0  0  0  0  0  0  0  0  0  0
   11.0153   -9.1078    0.0000 N   0  0  0  0  0  0  0  0  0  0  0  0
   11.0153   -9.9328    0.0000 N   0  0  0  0  0  0  0  0  0  0  0  0
   11.7586  -10.2908    0.0000 C   0  0  0  0  0  0  0  0  0  0  0  0
   11.9422  -11.0951    0.0000 C   0  0  0  0  0  0  0  0  0  0  0  0
   11.4278  -11.7401    0.0000 C   0  0  0  0  0  0  0  0  0  0  0  0
   10.6028  -11.7401    0.0000 C   0  0  0  0  0  0  0  0  0  0  0  0
   10.0885  -11.0951    0.0000 C   0  0  0  0  0  0  0  0  0  0  0  0
   10.2720  -10.2908    0.0000 C   0  0  0  0  0  0  0  0  0  0  0  0
  1  2  1  0  0  0  0
  2  3  4  0  0  0  0
  3  4  4  0  0  0  0
  4  5  4  0  0  0  0
  5  6  4  0  0  0  0
  2  6  4  0  0  0  0
  4  7  1  0  0  0  0
  7  8  2  0  0  0  0
  7  9  1  0  0  0  0
  9 10  1  0  0  0  0
 10 11  1  0  0  0  0
 11 12  1  0  0  0  0
 12 13  4  0  0  0  0
 13 14  4  0  0  0  0
 14 15  4  0  0  0  0
 15 16  4  0  0  0  0
 16 17  4  0  0  0  0
 12 17  4  0  0  0  0
 15 18  1  0  0  0  0
 18 19  2  0  0  0  0
 18 20  2  0  0  0  0
 18 21  1  0  0  0  0
 21 22  1  0  0  0  0
 22 23  2  0  0  0  0
 22 24  1  0  0  0  0
 24 25  1  0  0  0  0
 25 26  1  0  0  0  0
 26 27  1  0  0  0  0
 27 28  1  0  0  0  0
 28 29  1  0  0  0  0
 29 30  1  0  0  0  0
 30 31  1  0  0  0  0
 25 31  1  0  0  0  0
M  END
>  <ID>
1305

>  <PREFERRED_NAME>
glisoxepide

>  <CAS_RN>
25046-79-1

>  <SYNONYMS>
glisoxepide
glisepin
glisoxepid

>  <URL>
http://drugcentral.org/drugcard/1305/view

$$$$
