glucosaminylmuramyl dipeptide
  -INDIGO-06102311002D

 48 48  0  0  1  0  0  0  0  0999 V2000
    2.1641   -1.7982    0.0000 C   0  0  0  0  0  0  0  0  0  0  0  0
    2.2924   -0.9832    0.0000 C   0  0  2  0  0  0  0  0  0  0  0  0
    1.6508   -0.4646    0.0000 N   0  0  0  0  0  0  0  0  0  0  0  0
    0.8809   -0.7610    0.0000 C   0  0  0  0  0  0  0  0  0  0  0  0
    0.7525   -1.5759    0.0000 O   0  0  0  0  0  0  0  0  0  0  0  0
    0.2393   -0.2423    0.0000 C   0  0  1  0  0  0  0  0  0  0  0  0
    0.3676    0.5726    0.0000 C   0  0  0  0  0  0  0  0  0  0  0  0
   -0.5307   -0.5387    0.0000 O   0  0  0  0  0  0  0  0  0  0  0  0
   -1.1723   -0.0201    0.0000 C   0  0  2  0  0  0  0  0  0  0  0  0
   -1.0440    0.7949    0.0000 C   0  0  1  0  0  0  0  0  0  0  0  0
   -0.2740    1.0912    0.0000 N   0  0  0  0  0  0  0  0  0  0  0  0
   -0.1457    1.9062    0.0000 C   0  0  0  0  0  0  0  0  0  0  0  0
   -0.7873    2.4248    0.0000 C   0  0  0  0  0  0  0  0  0  0  0  0
    0.6242    2.2025    0.0000 O   0  0  0  0  0  0  0  0  0  0  0  0
   -1.6856    1.3135    0.0000 C   0  0  0  0  0  0  0  0  0  0  0  0
   -2.4555    1.0171    0.0000 O   0  0  0  0  0  0  0  0  0  0  0  0
   -1.9422   -0.3164    0.0000 C   0  0  2  0  0  0  0  0  0  0  0  0
   -2.5838    0.2022    0.0000 O   0  0  0  0  0  0  0  0  0  0  0  0
   -3.3538   -0.0942    0.0000 C   0  0  2  0  0  0  0  0  0  0  0  0
   -3.4821   -0.9091    0.0000 O   0  0  0  0  0  0  0  0  0  0  0  0
   -4.2520   -1.2055    0.0000 C   0  0  2  0  0  0  0  0  0  0  0  0
   -4.3804   -2.0204    0.0000 C   0  0  0  0  0  0  0  0  0  0  0  0
   -5.1503   -2.3168    0.0000 O   0  0  0  0  0  0  0  0  0  0  0  0
   -4.8937   -0.6869    0.0000 C   0  0  1  0  0  0  0  0  0  0  0  0
   -5.6636   -0.9832    0.0000 O   0  0  0  0  0  0  0  0  0  0  0  0
   -4.7653    0.1281    0.0000 C   0  0  2  0  0  0  0  0  0  0  0  0
   -5.4069    0.6467    0.0000 O   0  0  0  0  0  0  0  0  0  0  0  0
   -3.9954    0.4244    0.0000 C   0  0  1  0  0  0  0  0  0  0  0  0
   -3.8671    1.2394    0.0000 N   0  0  0  0  0  0  0  0  0  0  0  0
   -4.5087    1.7580    0.0000 C   0  0  0  0  0  0  0  0  0  0  0  0
   -5.2786    1.4617    0.0000 C   0  0  0  0  0  0  0  0  0  0  0  0
   -4.3804    2.5730    0.0000 O   0  0  0  0  0  0  0  0  0  0  0  0
   -2.0706   -1.1314    0.0000 C   0  0  2  0  0  0  0  0  0  0  0  0
   -2.8405   -1.4277    0.0000 O   0  0  0  0  0  0  0  0  0  0  0  0
   -1.4289   -1.6500    0.0000 C   0  0  0  0  0  0  0  0  0  0  0  0
   -1.5573   -2.4650    0.0000 O   0  0  0  0  0  0  0  0  0  0  0  0
    3.0624   -0.6869    0.0000 C   0  0  0  0  0  0  0  0  0  0  0  0
    3.1907    0.1281    0.0000 O   0  0  0  0  0  0  0  0  0  0  0  0
    3.7040   -1.2055    0.0000 N   0  0  0  0  0  0  0  0  0  0  0  0
    4.4739   -0.9091    0.0000 C   0  0  2  0  0  0  0  0  0  0  0  0
    5.1155   -1.4277    0.0000 C   0  0  0  0  0  0  0  0  0  0  0  0
    5.8855   -1.1314    0.0000 C   0  0  0  0  0  0  0  0  0  0  0  0
    6.5271   -1.6500    0.0000 C   0  0  0  0  0  0  0  0  0  0  0  0
    7.2970   -1.3537    0.0000 O   0  0  0  0  0  0  0  0  0  0  0  0
    6.3987   -2.4650    0.0000 O   0  0  0  0  0  0  0  0  0  0  0  0
    4.6022   -0.0942    0.0000 C   0  0  0  0  0  0  0  0  0  0  0  0
    5.3722    0.2022    0.0000 N   0  0  0  0  0  0  0  0  0  0  0  0
    3.9606    0.4244    0.0000 O   0  0  0  0  0  0  0  0  0  0  0  0
  2  1  1  6  0  0  0
  2  3  1  0  0  0  0
  3  4  1  0  0  0  0
  4  5  2  0  0  0  0
  4  6  1  0  0  0  0
  6  7  1  6  0  0  0
  6  8  1  0  0  0  0
  9  8  1  1  0  0  0
  9 10  1  0  0  0  0
 10 11  1  6  0  0  0
 11 12  1  0  0  0  0
 12 13  1  0  0  0  0
 12 14  2  0  0  0  0
 10 15  1  0  0  0  0
 15 16  2  0  0  0  0
  9 17  1  0  0  0  0
 17 18  1  1  0  0  0
 19 18  1  6  0  0  0
 19 20  1  0  0  0  0
 20 21  1  0  0  0  0
 21 22  1  6  0  0  0
 22 23  1  0  0  0  0
 21 24  1  0  0  0  0
 24 25  1  1  0  0  0
 24 26  1  0  0  0  0
 26 27  1  6  0  0  0
 26 28  1  0  0  0  0
 19 28  1  0  0  0  0
 28 29  1  1  0  0  0
 29 30  1  0  0  0  0
 30 31  1  0  0  0  0
 30 32  2  0  0  0  0
 17 33  1  0  0  0  0
 33 34  1  1  0  0  0
 33 35  1  0  0  0  0
 35 36  1  0  0  0  0
  2 37  1  0  0  0  0
 37 38  2  0  0  0  0
 37 39  1  0  0  0  0
 40 39  1  1  0  0  0
 40 41  1  0  0  0  0
 41 42  1  0  0  0  0
 42 43  1  0  0  0  0
 43 44  1  0  0  0  0
 43 45  2  0  0  0  0
 40 46  1  0  0  0  0
 46 47  1  0  0  0  0
 46 48  2  0  0  0  0
M  END
>  <ID>
1322

>  <PREFERRED_NAME>
glucosaminylmuramyl dipeptide

>  <CAS_RN>
70280-03-4

>  <SYNONYMS>
glucosaminylmuramyl dipeptide
glycopin
licopid

>  <URL>
http://drugcentral.org/drugcard/1322/view

$$$$
