glycyrrhizic acid
  -INDIGO-06102311002D

 58 64  0  0  1  0  0  0  0  0999 V2000
    5.9337    1.9394    0.0000 C   0  0  0  0  0  0  0  0  0  0  0  0
    6.0770    1.1270    0.0000 C   0  0  0  0  0  0  0  0  0  0  0  0
    6.8522    1.4091    0.0000 C   0  0  0  0  0  0  0  0  0  0  0  0
    6.4895    0.4125    0.0000 C   0  0  2  0  0  0  0  0  0  0  0  0
    6.0770   -0.3020    0.0000 C   0  0  0  0  0  0  0  0  0  0  0  0
    5.2520   -0.3020    0.0000 C   0  0  0  0  0  0  0  0  0  0  0  0
    4.8395    0.4125    0.0000 C   0  0  1  0  0  0  0  0  0  0  0  0
    4.4270   -0.3020    0.0000 C   0  0  0  0  0  0  0  0  0  0  0  0
    5.2520    1.1270    0.0000 C   0  0  1  0  0  0  0  0  0  0  0  0
    4.8395    1.8414    0.0000 C   0  0  0  0  0  0  0  0  0  0  0  0
    4.0145    1.8414    0.0000 C   0  0  0  0  0  0  0  0  0  0  0  0
    3.6020    1.1270    0.0000 C   0  0  2  0  0  0  0  0  0  0  0  0
    3.1895    1.8414    0.0000 C   0  0  0  0  0  0  0  0  0  0  0  0
    4.0145    0.4125    0.0000 C   0  0  2  0  0  0  0  0  0  0  0  0
    3.6020   -0.3020    0.0000 C   0  0  0  0  0  0  0  0  0  0  0  0
    4.0145   -1.0164    0.0000 O   0  0  0  0  0  0  0  0  0  0  0  0
    2.7770   -0.3020    0.0000 C   0  0  0  0  0  0  0  0  0  0  0  0
    2.3645    0.4125    0.0000 C   0  0  0  0  0  0  0  0  0  0  0  0
    1.5395    0.4125    0.0000 C   0  0  2  0  0  0  0  0  0  0  0  0
    1.1270   -0.3020    0.0000 C   0  0  0  0  0  0  0  0  0  0  0  0
    0.3020   -0.3020    0.0000 C   0  0  2  0  0  0  0  0  0  0  0  0
    0.4452   -1.1144    0.0000 C   0  0  0  0  0  0  0  0  0  0  0  0
   -0.1105    0.4125    0.0000 C   0  0  0  0  0  0  0  0  0  0  0  0
    0.3020    1.1270    0.0000 C   0  0  0  0  0  0  0  0  0  0  0  0
    1.1270    1.1270    0.0000 C   0  0  1  0  0  0  0  0  0  0  0  0
    0.7145    1.8414    0.0000 C   0  0  0  0  0  0  0  0  0  0  0  0
    1.5395    1.8414    0.0000 C   0  0  0  0  0  0  0  0  0  0  0  0
    2.3645    1.8414    0.0000 C   0  0  0  0  0  0  0  0  0  0  0  0
    2.7770    1.1270    0.0000 C   0  0  1  0  0  0  0  0  0  0  0  0
    2.6907    1.9475    0.0000 C   0  0  0  0  0  0  0  0  0  0  0  0
   -0.4733   -0.5841    0.0000 C   0  0  0  0  0  0  0  0  0  0  0  0
   -0.6165   -1.3966    0.0000 O   0  0  0  0  0  0  0  0  0  0  0  0
   -1.1053   -0.0538    0.0000 O   0  0  0  0  0  0  0  0  0  0  0  0
    7.3145    0.4125    0.0000 O   0  0  0  0  0  0  0  0  0  0  0  0
    7.7270   -0.3020    0.0000 C   0  0  1  0  0  0  0  0  0  0  0  0
    8.5520   -0.3020    0.0000 O   0  0  0  0  0  0  0  0  0  0  0  0
    8.9645   -1.0164    0.0000 C   0  0  1  0  0  0  0  0  0  0  0  0
    8.5520   -1.7309    0.0000 C   0  0  1  0  0  0  0  0  0  0  0  0
    8.9645   -2.4454    0.0000 O   0  0  0  0  0  0  0  0  0  0  0  0
    7.7270   -1.7309    0.0000 C   0  0  2  0  0  0  0  0  0  0  0  0
    7.3145   -2.4454    0.0000 O   0  0  0  0  0  0  0  0  0  0  0  0
    7.3145   -1.0164    0.0000 C   0  0  1  0  0  0  0  0  0  0  0  0
    6.4895   -1.0164    0.0000 O   0  0  0  0  0  0  0  0  0  0  0  0
    6.0770   -1.7309    0.0000 C   0  0  2  0  0  0  0  0  0  0  0  0
    6.4895   -2.4454    0.0000 O   0  0  0  0  0  0  0  0  0  0  0  0
    6.0770   -3.1599    0.0000 C   0  0  1  0  0  0  0  0  0  0  0  0
    5.2520   -3.1599    0.0000 C   0  0  1  0  0  0  0  0  0  0  0  0
    4.8395   -3.8743    0.0000 O   0  0  0  0  0  0  0  0  0  0  0  0
    4.8395   -2.4454    0.0000 C   0  0  2  0  0  0  0  0  0  0  0  0
    4.0145   -2.4454    0.0000 O   0  0  0  0  0  0  0  0  0  0  0  0
    5.2520   -1.7309    0.0000 C   0  0  1  0  0  0  0  0  0  0  0  0
    4.8395   -1.0164    0.0000 O   0  0  0  0  0  0  0  0  0  0  0  0
    6.4895   -3.8743    0.0000 C   0  0  0  0  0  0  0  0  0  0  0  0
    6.0770   -4.5888    0.0000 O   0  0  0  0  0  0  0  0  0  0  0  0
    7.3145   -3.8743    0.0000 O   0  0  0  0  0  0  0  0  0  0  0  0
    9.7895   -1.0164    0.0000 C   0  0  0  0  0  0  0  0  0  0  0  0
   10.2020   -1.7309    0.0000 O   0  0  0  0  0  0  0  0  0  0  0  0
   10.2020   -0.3020    0.0000 O   0  0  0  0  0  0  0  0  0  0  0  0
  1  2  1  0  0  0  0
  2  3  1  0  0  0  0
  2  4  1  0  0  0  0
  4  5  1  0  0  0  0
  5  6  1  0  0  0  0
  6  7  1  0  0  0  0
  7  8  1  1  0  0  0
  7  9  1  0  0  0  0
  2  9  1  0  0  0  0
  9 10  1  1  0  0  0
 10 11  1  0  0  0  0
 11 12  1  0  0  0  0
 12 13  1  1  0  0  0
 12 14  1  0  0  0  0
  7 14  1  0  0  0  0
 14 15  1  1  0  0  0
 15 16  2  0  0  0  0
 15 17  1  0  0  0  0
 17 18  2  0  0  0  0
 19 18  1  6  0  0  0
 19 20  1  0  0  0  0
 20 21  1  0  0  0  0
 21 22  1  6  0  0  0
 21 23  1  0  0  0  0
 23 24  1  0  0  0  0
 24 25  1  0  0  0  0
 19 25  1  0  0  0  0
 25 26  1  1  0  0  0
 25 27  1  0  0  0  0
 27 28  1  0  0  0  0
 28 29  1  0  0  0  0
 12 29  1  0  0  0  0
 18 29  1  0  0  0  0
 29 30  1  6  0  0  0
 21 31  1  1  0  0  0
 31 32  1  0  0  0  0
 31 33  2  0  0  0  0
  4 34  1  1  0  0  0
 35 34  1  1  0  0  0
 35 36  1  0  0  0  0
 36 37  1  0  0  0  0
 37 38  1  0  0  0  0
 38 39  1  1  0  0  0
 38 40  1  0  0  0  0
 40 41  1  6  0  0  0
 40 42  1  0  0  0  0
 35 42  1  0  0  0  0
 42 43  1  1  0  0  0
 44 43  1  6  0  0  0
 44 45  1  0  0  0  0
 45 46  1  0  0  0  0
 46 47  1  0  0  0  0
 47 48  1  1  0  0  0
 47 49  1  0  0  0  0
 49 50  1  6  0  0  0
 49 51  1  0  0  0  0
 44 51  1  0  0  0  0
 51 52  1  1  0  0  0
 46 53  1  6  0  0  0
 53 54  1  0  0  0  0
 53 55  2  0  0  0  0
 37 56  1  6  0  0  0
 56 57  1  0  0  0  0
 56 58  2  0  0  0  0
M  END
>  <ID>
1325

>  <PREFERRED_NAME>
glycyrrhizic acid

>  <CAS_RN>
1405-86-3

>  <SYNONYMS>
glycyrrhizic acid
glycyrrhizin
18beta-Glycyrrhizic acid
glycyrrhizinic acid
glycyron
glycyrrhetinic acid glycoside
glycyrrhizinate dipotassium

>  <URL>
http://drugcentral.org/drugcard/1325/view

$$$$
