gonadorelin
  -INDIGO-06102311072D

 85 90  0  0  1  0  0  0  0  0999 V2000
    2.3224   -5.4491    0.0000 C   0  0  0  0  0  0  0  0  0  0  0  0
    2.7349   -4.7346    0.0000 C   0  0  0  0  0  0  0  0  0  0  0  0
    3.5599   -4.7346    0.0000 C   0  0  0  0  0  0  0  0  0  0  0  0
    2.3224   -4.0201    0.0000 C   0  0  0  0  0  0  0  0  0  0  0  0
    2.7349   -3.3057    0.0000 C   0  0  2  0  0  0  0  0  0  0  0  0
    2.3224   -2.5912    0.0000 N   0  0  0  0  0  0  0  0  0  0  0  0
    1.4974   -2.5912    0.0000 C   0  0  0  0  0  0  0  0  0  0  0  0
    1.0849   -3.3057    0.0000 O   0  0  0  0  0  0  0  0  0  0  0  0
    1.0849   -1.8767    0.0000 C   0  0  0  0  0  0  0  0  0  0  0  0
    0.2599   -1.8767    0.0000 N   0  0  0  0  0  0  0  0  0  0  0  0
   -0.1526   -1.1623    0.0000 C   0  0  0  0  0  0  0  0  0  0  0  0
    0.2599   -0.4478    0.0000 O   0  0  0  0  0  0  0  0  0  0  0  0
   -0.9776   -1.1623    0.0000 C   0  0  2  0  0  0  0  0  0  0  0  0
   -1.3901   -1.8767    0.0000 C   0  0  0  0  0  0  0  0  0  0  0  0
   -0.9776   -2.5912    0.0000 C   0  0  0  0  0  0  0  0  0  0  0  0
   -0.1526   -2.5912    0.0000 C   0  0  0  0  0  0  0  0  0  0  0  0
    0.2599   -3.3057    0.0000 C   0  0  0  0  0  0  0  0  0  0  0  0
   -0.1526   -4.0201    0.0000 C   0  0  0  0  0  0  0  0  0  0  0  0
    0.2599   -4.7346    0.0000 O   0  0  0  0  0  0  0  0  0  0  0  0
   -0.9776   -4.0201    0.0000 C   0  0  0  0  0  0  0  0  0  0  0  0
   -1.3901   -3.3057    0.0000 C   0  0  0  0  0  0  0  0  0  0  0  0
   -1.3901   -0.4478    0.0000 N   0  0  0  0  0  0  0  0  0  0  0  0
   -2.2151   -0.4478    0.0000 C   0  0  0  0  0  0  0  0  0  0  0  0
   -2.6276   -1.1623    0.0000 O   0  0  0  0  0  0  0  0  0  0  0  0
   -2.6276    0.2667    0.0000 C   0  0  2  0  0  0  0  0  0  0  0  0
   -2.2151    0.9811    0.0000 C   0  0  0  0  0  0  0  0  0  0  0  0
   -1.3901    0.9811    0.0000 O   0  0  0  0  0  0  0  0  0  0  0  0
   -3.4526    0.2667    0.0000 N   0  0  0  0  0  0  0  0  0  0  0  0
   -3.8651    0.9811    0.0000 C   0  0  0  0  0  0  0  0  0  0  0  0
   -3.4526    1.6956    0.0000 O   0  0  0  0  0  0  0  0  0  0  0  0
   -4.6901    0.9811    0.0000 C   0  0  2  0  0  0  0  0  0  0  0  0
   -5.1026    1.6956    0.0000 C   0  0  0  0  0  0  0  0  0  0  0  0
   -4.6901    2.4101    0.0000 C   0  0  0  0  0  0  0  0  0  0  0  0
   -3.8696    2.4963    0.0000 C   0  0  0  0  0  0  0  0  0  0  0  0
   -3.6981    3.3033    0.0000 N   0  0  0  0  0  0  0  0  0  0  0  0
   -4.4126    3.7158    0.0000 C   0  0  0  0  0  0  0  0  0  0  0  0
   -5.0257    3.1638    0.0000 C   0  0  0  0  0  0  0  0  0  0  0  0
   -5.8103    3.4187    0.0000 C   0  0  0  0  0  0  0  0  0  0  0  0
   -5.9818    4.2257    0.0000 C   0  0  0  0  0  0  0  0  0  0  0  0
   -5.3687    4.7777    0.0000 C   0  0  0  0  0  0  0  0  0  0  0  0
   -4.5841    4.5228    0.0000 C   0  0  0  0  0  0  0  0  0  0  0  0
   -5.1026    0.2667    0.0000 N   0  0  0  0  0  0  0  0  0  0  0  0
   -4.6901   -0.4478    0.0000 C   0  0  0  0  0  0  0  0  0  0  0  0
   -3.8651   -0.4478    0.0000 O   0  0  0  0  0  0  0  0  0  0  0  0
   -5.1026   -1.1623    0.0000 C   0  0  2  0  0  0  0  0  0  0  0  0
   -5.9276   -1.1623    0.0000 C   0  0  0  0  0  0  0  0  0  0  0  0
   -6.3401   -0.4478    0.0000 C   0  0  0  0  0  0  0  0  0  0  0  0
   -6.0046    0.3059    0.0000 C   0  0  0  0  0  0  0  0  0  0  0  0
   -6.6176    0.8579    0.0000 N   0  0  0  0  0  0  0  0  0  0  0  0
   -7.3321    0.4454    0.0000 C   0  0  0  0  0  0  0  0  0  0  0  0
   -7.1606   -0.3616    0.0000 N   0  0  0  0  0  0  0  0  0  0  0  0
   -4.6901   -1.8767    0.0000 N   0  0  0  0  0  0  0  0  0  0  0  0
   -5.1026   -2.5912    0.0000 C   0  0  0  0  0  0  0  0  0  0  0  0
   -5.9276   -2.5912    0.0000 O   0  0  0  0  0  0  0  0  0  0  0  0
   -4.6901   -3.3057    0.0000 C   0  0  2  0  0  0  0  0  0  0  0  0
   -5.0257   -4.0594    0.0000 C   0  0  0  0  0  0  0  0  0  0  0  0
   -4.4126   -4.6114    0.0000 C   0  0  0  0  0  0  0  0  0  0  0  0
   -3.6981   -4.1989    0.0000 C   0  0  0  0  0  0  0  0  0  0  0  0
   -2.9444   -4.5344    0.0000 O   0  0  0  0  0  0  0  0  0  0  0  0
   -3.8696   -3.3919    0.0000 N   0  0  0  0  0  0  0  0  0  0  0  0
    3.5599   -3.3057    0.0000 C   0  0  0  0  0  0  0  0  0  0  0  0
    3.9724   -2.5912    0.0000 O   0  0  0  0  0  0  0  0  0  0  0  0
    3.9724   -4.0201    0.0000 N   0  0  0  0  0  0  0  0  0  0  0  0
    4.7974   -4.0201    0.0000 C   0  0  1  0  0  0  0  0  0  0  0  0
    5.2099   -3.3057    0.0000 C   0  0  0  0  0  0  0  0  0  0  0  0
    6.0349   -3.3057    0.0000 C   0  0  0  0  0  0  0  0  0  0  0  0
    6.4474   -2.5912    0.0000 C   0  0  0  0  0  0  0  0  0  0  0  0
    7.2724   -2.5912    0.0000 N   0  0  0  0  0  0  0  0  0  0  0  0
    7.6849   -1.8767    0.0000 C   0  0  0  0  0  0  0  0  0  0  0  0
    8.5099   -1.8767    0.0000 N   0  0  0  0  0  0  0  0  0  0  0  0
    7.2724   -1.1623    0.0000 N   0  0  0  0  0  0  0  0  0  0  0  0
    5.2099   -4.7346    0.0000 C   0  0  0  0  0  0  0  0  0  0  0  0
    6.0349   -4.7346    0.0000 O   0  0  0  0  0  0  0  0  0  0  0  0
    4.7974   -5.4491    0.0000 N   0  0  0  0  0  0  0  0  0  0  0  0
    3.9769   -5.5353    0.0000 C   0  0  0  0  0  0  0  0  0  0  0  0
    3.8054   -6.3423    0.0000 C   0  0  0  0  0  0  0  0  0  0  0  0
    4.5199   -6.7548    0.0000 C   0  0  0  0  0  0  0  0  0  0  0  0
    5.1329   -6.2028    0.0000 C   0  0  1  0  0  0  0  0  0  0  0  0
    5.9399   -6.3743    0.0000 C   0  0  0  0  0  0  0  0  0  0  0  0
    6.1949   -7.1589    0.0000 O   0  0  0  0  0  0  0  0  0  0  0  0
    6.4920   -5.7612    0.0000 N   0  0  0  0  0  0  0  0  0  0  0  0
    7.2989   -5.9327    0.0000 C   0  0  0  0  0  0  0  0  0  0  0  0
    7.8510   -5.3196    0.0000 C   0  0  0  0  0  0  0  0  0  0  0  0
    8.6579   -5.4912    0.0000 N   0  0  0  0  0  0  0  0  0  0  0  0
    7.5960   -4.5350    0.0000 O   0  0  0  0  0  0  0  0  0  0  0  0
  1  2  1  0  0  0  0
  2  3  1  0  0  0  0
  2  4  1  0  0  0  0
  4  5  1  0  0  0  0
  5  6  1  6  0  0  0
  6  7  1  0  0  0  0
  7  8  2  0  0  0  0
  7  9  1  0  0  0  0
  9 10  1  0  0  0  0
 10 11  1  0  0  0  0
 11 12  2  0  0  0  0
 11 13  1  0  0  0  0
 13 14  1  0  0  0  0
 14 15  1  0  0  0  0
 15 16  4  0  0  0  0
 16 17  4  0  0  0  0
 17 18  4  0  0  0  0
 18 19  1  0  0  0  0
 18 20  4  0  0  0  0
 20 21  4  0  0  0  0
 15 21  4  0  0  0  0
 13 22  1  6  0  0  0
 22 23  1  0  0  0  0
 23 24  2  0  0  0  0
 23 25  1  0  0  0  0
 25 26  1  0  0  0  0
 26 27  1  0  0  0  0
 25 28  1  1  0  0  0
 28 29  1  0  0  0  0
 29 30  2  0  0  0  0
 29 31  1  0  0  0  0
 31 32  1  0  0  0  0
 32 33  1  0  0  0  0
 33 34  4  0  0  0  0
 34 35  4  0  0  0  0
 35 36  4  0  0  0  0
 36 37  4  0  0  0  0
 33 37  4  0  0  0  0
 37 38  4  0  0  0  0
 38 39  4  0  0  0  0
 39 40  4  0  0  0  0
 40 41  4  0  0  0  0
 36 41  4  0  0  0  0
 31 42  1  1  0  0  0
 42 43  1  0  0  0  0
 43 44  2  0  0  0  0
 43 45  1  0  0  0  0
 45 46  1  0  0  0  0
 46 47  1  0  0  0  0
 47 48  4  0  0  0  0
 48 49  4  0  0  0  0
 49 50  4  0  0  0  0
 50 51  4  0  0  0  0
 47 51  4  0  0  0  0
 45 52  1  1  0  0  0
 52 53  1  0  0  0  0
 53 54  2  0  0  0  0
 55 53  1  1  0  0  0
 55 56  1  0  0  0  0
 56 57  1  0  0  0  0
 57 58  1  0  0  0  0
 58 59  2  0  0  0  0
 58 60  1  0  0  0  0
 55 60  1  0  0  0  0
  5 61  1  0  0  0  0
 61 62  2  0  0  0  0
 61 63  1  0  0  0  0
 64 63  1  1  0  0  0
 64 65  1  0  0  0  0
 65 66  1  0  0  0  0
 66 67  1  0  0  0  0
 67 68  1  0  0  0  0
 68 69  1  0  0  0  0
 69 70  1  0  0  0  0
 69 71  2  0  0  0  0
 64 72  1  0  0  0  0
 72 73  2  0  0  0  0
 72 74  1  0  0  0  0
 74 75  1  0  0  0  0
 75 76  1  0  0  0  0
 76 77  1  0  0  0  0
 77 78  1  0  0  0  0
 74 78  1  0  0  0  0
 78 79  1  6  0  0  0
 79 80  2  0  0  0  0
 79 81  1  0  0  0  0
 81 82  1  0  0  0  0
 82 83  1  0  0  0  0
 83 84  1  0  0  0  0
 83 85  2  0  0  0  0
M  STY  2   1 DAT   2 DAT
M  SLB  2   1   1   2   2
M  SAL   1  1  49
M  SDT   1 MRV_IMPLICIT_H
M  SDD   1     0.0000    0.0000    DA    ALL  1       1
M  SED   1 IMPL_H1
M  SAL   2  1  35
M  SDT   2 MRV_IMPLICIT_H
M  SDD   2     0.0000    0.0000    DA    ALL  1       1
M  SED   2 IMPL_H1
M  END
>  <ID>
2958

>  <PREFERRED_NAME>
gonadorelin

>  <CAS_RN>
33515-09-2

>  <SYNONYMS>
gonadorelin
Luteinizing hormone-releasing factor (swine)
hypocrine
fertagyl
gonadorelin hydrochloride
gonadorelin acetate
gonadorelin HCl
gonadorelin diacetate tetrahydrate

>  <URL>
http://drugcentral.org/drugcard/2958/view

$$$$
