granisetron
  -INDIGO-06102311002D

 23 26  0  0  1  0  0  0  0  0999 V2000
   -3.2991    1.0543    0.0000 C   0  0  0  0  0  0  0  0  0  0  0  0
   -3.0441    0.2697    0.0000 N   0  0  0  0  0  0  0  0  0  0  0  0
   -3.5291   -0.3978    0.0000 N   0  0  0  0  0  0  0  0  0  0  0  0
   -3.0441   -1.0652    0.0000 C   0  0  0  0  0  0  0  0  0  0  0  0
   -3.2991   -1.8498    0.0000 C   0  0  0  0  0  0  0  0  0  0  0  0
   -2.7471   -2.4629    0.0000 O   0  0  0  0  0  0  0  0  0  0  0  0
   -4.1061   -2.0213    0.0000 N   0  0  0  0  0  0  0  0  0  0  0  0
   -4.3610   -2.8060    0.0000 C   0  0  2  0  0  0  0  0  0  0  0  0
   -5.1835   -2.8707    0.0000 C   0  0  0  0  0  0  0  0  0  0  0  0
   -5.7192   -3.4980    0.0000 C   0  0  2  0  0  0  0  0  0  0  0  0
   -5.6545   -4.3205    0.0000 C   0  0  0  0  0  0  0  0  0  0  0  0
   -5.0272   -4.8563    0.0000 C   0  0  0  0  0  0  0  0  0  0  0  0
   -4.2047   -4.7916    0.0000 C   0  0  0  0  0  0  0  0  0  0  0  0
   -3.6689   -4.1642    0.0000 C   0  0  2  0  0  0  0  0  0  0  0  0
   -3.7337   -3.3418    0.0000 C   0  0  0  0  0  0  0  0  0  0  0  0
   -4.6108   -3.5748    0.0000 N   0  0  0  0  0  0  0  0  0  0  0  0
   -3.9434   -3.0899    0.0000 C   0  0  0  0  0  0  0  0  0  0  0  0
   -2.2595   -0.8103    0.0000 C   0  0  0  0  0  0  0  0  0  0  0  0
   -2.2595    0.0147    0.0000 C   0  0  0  0  0  0  0  0  0  0  0  0
   -1.5451    0.4272    0.0000 C   0  0  0  0  0  0  0  0  0  0  0  0
   -0.8306    0.0147    0.0000 C   0  0  0  0  0  0  0  0  0  0  0  0
   -0.8306   -0.8103    0.0000 C   0  0  0  0  0  0  0  0  0  0  0  0
   -1.5451   -1.2228    0.0000 C   0  0  0  0  0  0  0  0  0  0  0  0
  1  2  1  0  0  0  0
  2  3  4  0  0  0  0
  3  4  4  0  0  0  0
  4  5  1  0  0  0  0
  5  6  2  0  0  0  0
  5  7  1  0  0  0  0
  8  7  1  1  0  0  0
  8  9  1  0  0  0  0
  9 10  1  0  0  0  0
 10 11  1  0  0  0  0
 11 12  1  0  0  0  0
 12 13  1  0  0  0  0
 13 14  1  0  0  0  0
 14 15  1  0  0  0  0
  8 15  1  0  0  0  0
 14 16  1  6  0  0  0
 10 16  1  6  0  0  0
 16 17  1  0  0  0  0
  4 18  4  0  0  0  0
 18 19  4  0  0  0  0
  2 19  4  0  0  0  0
 19 20  4  0  0  0  0
 20 21  4  0  0  0  0
 21 22  4  0  0  0  0
 22 23  4  0  0  0  0
 18 23  4  0  0  0  0
M  END
>  <ID>
1329

>  <PREFERRED_NAME>
granisetron

>  <CAS_RN>
109889-09-0

>  <SYNONYMS>
granisetron
granisetron monohydrochloride
BRL-43694
sancuso
kevatril
granisetron hydrochloride
granisetron HCl
kytril

>  <URL>
http://drugcentral.org/drugcard/1329/view

$$$$
