guaiazulen
  -INDIGO-06102311092D

 15 16  0  0  0  0  0  0  0  0999 V2000
    3.3158    0.2607    0.0000 C   0  0  0  0  0  0  0  0  0  0  0  0
    2.5000    0.1378    0.0000 C   0  0  0  0  0  0  0  0  0  0  0  0
    2.1986   -0.6302    0.0000 C   0  0  0  0  0  0  0  0  0  0  0  0
    1.9856    0.7828    0.0000 C   0  0  0  0  0  0  0  0  0  0  0  0
    1.1813    0.5992    0.0000 C   0  0  0  0  0  0  0  0  0  0  0  0
    0.5363    1.1136    0.0000 C   0  0  0  0  0  0  0  0  0  0  0  0
   -0.2483    0.8586    0.0000 C   0  0  0  0  0  0  0  0  0  0  0  0
   -0.5033    0.0740    0.0000 C   0  0  0  0  0  0  0  0  0  0  0  0
   -0.7333    1.5261    0.0000 C   0  0  0  0  0  0  0  0  0  0  0  0
   -0.2483    2.1935    0.0000 C   0  0  0  0  0  0  0  0  0  0  0  0
    0.5363    1.9386    0.0000 C   0  0  0  0  0  0  0  0  0  0  0  0
    1.1813    2.4530    0.0000 C   0  0  0  0  0  0  0  0  0  0  0  0
    0.9977    3.2573    0.0000 C   0  0  0  0  0  0  0  0  0  0  0  0
    1.9856    2.2694    0.0000 C   0  0  0  0  0  0  0  0  0  0  0  0
    2.3436    1.5261    0.0000 C   0  0  0  0  0  0  0  0  0  0  0  0
  1  2  1  0  0  0  0
  2  3  1  0  0  0  0
  2  4  1  0  0  0  0
  4  5  4  0  0  0  0
  5  6  4  0  0  0  0
  6  7  4  0  0  0  0
  7  8  1  0  0  0  0
  7  9  4  0  0  0  0
  9 10  4  0  0  0  0
 10 11  4  0  0  0  0
  6 11  4  0  0  0  0
 11 12  4  0  0  0  0
 12 13  1  0  0  0  0
 12 14  4  0  0  0  0
 14 15  4  0  0  0  0
  4 15  4  0  0  0  0
M  END
>  <ID>
3272

>  <PREFERRED_NAME>
guaiazulen

>  <CAS_RN>
489-84-9

>  <SYNONYMS>
guaiazulen
guaiazulene
azulon
azunol
eucazulen
kessazulen
purazulen
silazulon
uroazulen
vetivazulen

>  <URL>
http://drugcentral.org/drugcard/3272/view

$$$$
