guaiacol phosphate
  -INDIGO-06102311092D

 29 31  0  0  0  0  0  0  0  0999 V2000
   -1.3480   -0.3020    0.0000 C   0  0  0  0  0  0  0  0  0  0  0  0
   -0.6336   -0.7145    0.0000 O   0  0  0  0  0  0  0  0  0  0  0  0
   -0.6336   -1.5395    0.0000 C   0  0  0  0  0  0  0  0  0  0  0  0
   -1.3480   -1.9520    0.0000 C   0  0  0  0  0  0  0  0  0  0  0  0
   -2.0625   -1.5395    0.0000 O   0  0  0  0  0  0  0  0  0  0  0  0
   -2.7770   -1.9520    0.0000 P   0  0  0  0  0  0  0  0  0  0  0  0
   -3.1895   -1.2375    0.0000 O   0  0  0  0  0  0  0  0  0  0  0  0
   -3.4914   -2.3645    0.0000 O   0  0  0  0  0  0  0  0  0  0  0  0
   -4.2059   -1.9520    0.0000 C   0  0  0  0  0  0  0  0  0  0  0  0
   -4.9204   -2.3645    0.0000 C   0  0  0  0  0  0  0  0  0  0  0  0
   -4.9204   -3.1895    0.0000 O   0  0  0  0  0  0  0  0  0  0  0  0
   -5.6349   -3.6020    0.0000 C   0  0  0  0  0  0  0  0  0  0  0  0
   -5.6349   -1.9520    0.0000 C   0  0  0  0  0  0  0  0  0  0  0  0
   -5.6349   -1.1270    0.0000 C   0  0  0  0  0  0  0  0  0  0  0  0
   -4.9204   -0.7145    0.0000 C   0  0  0  0  0  0  0  0  0  0  0  0
   -4.2059   -1.1270    0.0000 C   0  0  0  0  0  0  0  0  0  0  0  0
   -2.3645   -2.6664    0.0000 O   0  0  0  0  0  0  0  0  0  0  0  0
   -2.7770   -3.3809    0.0000 C   0  0  0  0  0  0  0  0  0  0  0  0
   -2.3645   -4.0954    0.0000 C   0  0  0  0  0  0  0  0  0  0  0  0
   -1.5395   -4.0954    0.0000 O   0  0  0  0  0  0  0  0  0  0  0  0
   -1.1270   -4.8099    0.0000 C   0  0  0  0  0  0  0  0  0  0  0  0
   -2.7770   -4.8099    0.0000 C   0  0  0  0  0  0  0  0  0  0  0  0
   -3.6020   -4.8099    0.0000 C   0  0  0  0  0  0  0  0  0  0  0  0
   -4.0145   -4.0954    0.0000 C   0  0  0  0  0  0  0  0  0  0  0  0
   -3.6020   -3.3809    0.0000 C   0  0  0  0  0  0  0  0  0  0  0  0
   -1.3480   -2.7770    0.0000 C   0  0  0  0  0  0  0  0  0  0  0  0
   -0.6336   -3.1895    0.0000 C   0  0  0  0  0  0  0  0  0  0  0  0
    0.0809   -2.7770    0.0000 C   0  0  0  0  0  0  0  0  0  0  0  0
    0.0809   -1.9520    0.0000 C   0  0  0  0  0  0  0  0  0  0  0  0
  1  2  1  0  0  0  0
  2  3  1  0  0  0  0
  3  4  4  0  0  0  0
  4  5  1  0  0  0  0
  5  6  1  0  0  0  0
  6  7  2  0  0  0  0
  6  8  1  0  0  0  0
  8  9  1  0  0  0  0
  9 10  4  0  0  0  0
 10 11  1  0  0  0  0
 11 12  1  0  0  0  0
 10 13  4  0  0  0  0
 13 14  4  0  0  0  0
 14 15  4  0  0  0  0
 15 16  4  0  0  0  0
  9 16  4  0  0  0  0
  6 17  1  0  0  0  0
 17 18  1  0  0  0  0
 18 19  4  0  0  0  0
 19 20  1  0  0  0  0
 20 21  1  0  0  0  0
 19 22  4  0  0  0  0
 22 23  4  0  0  0  0
 23 24  4  0  0  0  0
 24 25  4  0  0  0  0
 18 25  4  0  0  0  0
  4 26  4  0  0  0  0
 26 27  4  0  0  0  0
 27 28  4  0  0  0  0
 28 29  4  0  0  0  0
  3 29  4  0  0  0  0
M  END
>  <ID>
3452

>  <PREFERRED_NAME>
guaiacol phosphate

>  <CAS_RN>
563-03-1

>  <SYNONYMS>
guaiacol phosphate

>  <URL>
http://drugcentral.org/drugcard/3452/view

$$$$
