guanidine
  -INDIGO-06102311002D

  4  3  0  0  0  0  0  0  0  0999 V2000
    1.2375    0.7145    0.0000 N   0  0  0  0  0  0  0  0  0  0  0  0
    0.8250    0.0000    0.0000 C   0  0  0  0  0  0  0  0  0  0  0  0
    1.2375   -0.7145    0.0000 N   0  0  0  0  0  0  0  0  0  0  0  0
    0.0000    0.0000    0.0000 N   0  0  0  0  0  0  0  0  0  0  0  0
  1  2  1  0  0  0  0
  2  3  1  0  0  0  0
  2  4  2  0  0  0  0
M  END
>  <ID>
1344

>  <PREFERRED_NAME>
guanidine

>  <CAS_RN>
113-00-8

>  <SYNONYMS>
guanidine
aminoformamidine
iminourea
guanidin
carbamamidine
guanidine hydrochloride
guanidine HCl

>  <URL>
http://drugcentral.org/drugcard/1344/view

$$$$
