guanethidine
  -INDIGO-06102311002D

 14 14  0  0  0  0  0  0  0  0999 V2000
   -0.9748   -2.7623    0.0000 N   0  0  0  0  0  0  0  0  0  0  0  0
   -0.2603   -3.1748    0.0000 C   0  0  0  0  0  0  0  0  0  0  0  0
   -0.2603   -3.9998    0.0000 N   0  0  0  0  0  0  0  0  0  0  0  0
    0.4542   -2.7623    0.0000 N   0  0  0  0  0  0  0  0  0  0  0  0
    1.1686   -3.1748    0.0000 C   0  0  0  0  0  0  0  0  0  0  0  0
    1.8831   -2.7623    0.0000 C   0  0  0  0  0  0  0  0  0  0  0  0
    2.5976   -3.1748    0.0000 N   0  0  0  0  0  0  0  0  0  0  0  0
    3.2521   -2.6726    0.0000 C   0  0  0  0  0  0  0  0  0  0  0  0
    4.0700   -2.7802    0.0000 C   0  0  0  0  0  0  0  0  0  0  0  0
    4.5723   -3.4348    0.0000 C   0  0  0  0  0  0  0  0  0  0  0  0
    4.4646   -4.2527    0.0000 C   0  0  0  0  0  0  0  0  0  0  0  0
    3.8101   -4.7549    0.0000 C   0  0  0  0  0  0  0  0  0  0  0  0
    2.9921   -4.6472    0.0000 C   0  0  0  0  0  0  0  0  0  0  0  0
    2.4899   -3.9927    0.0000 C   0  0  0  0  0  0  0  0  0  0  0  0
  1  2  1  0  0  0  0
  2  3  2  0  0  0  0
  2  4  1  0  0  0  0
  4  5  1  0  0  0  0
  5  6  1  0  0  0  0
  6  7  1  0  0  0  0
  7  8  1  0  0  0  0
  8  9  1  0  0  0  0
  9 10  1  0  0  0  0
 10 11  1  0  0  0  0
 11 12  1  0  0  0  0
 12 13  1  0  0  0  0
 13 14  1  0  0  0  0
  7 14  1  0  0  0  0
M  END
>  <ID>
1342

>  <PREFERRED_NAME>
guanethidine

>  <CAS_RN>
55-65-2

>  <SYNONYMS>
guanethidine
abapresin
ismelin
octatensine
oktatensin
guanethidine monosulfate
guanethidine sulfate

>  <URL>
http://drugcentral.org/drugcard/1342/view

$$$$
