halofantrine
  -INDIGO-06102311002D

 33 35  0  0  0  0  0  0  0  0999 V2000
    5.4457    3.7873    0.0000 C   0  0  0  0  0  0  0  0  0  0  0  0
    6.2559    3.6314    0.0000 C   0  0  0  0  0  0  0  0  0  0  0  0
    6.5259    2.8518    0.0000 C   0  0  0  0  0  0  0  0  0  0  0  0
    7.3360    2.6959    0.0000 C   0  0  0  0  0  0  0  0  0  0  0  0
    7.6061    1.9164    0.0000 N   0  0  0  0  0  0  0  0  0  0  0  0
    7.0660    1.2927    0.0000 C   0  0  0  0  0  0  0  0  0  0  0  0
    6.2559    1.4486    0.0000 C   0  0  0  0  0  0  0  0  0  0  0  0
    5.7158    0.8250    0.0000 C   0  0  0  0  0  0  0  0  0  0  0  0
    4.9056    0.9809    0.0000 C   0  0  0  0  0  0  0  0  0  0  0  0
    8.4162    1.7605    0.0000 C   0  0  0  0  0  0  0  0  0  0  0  0
    8.6863    0.9809    0.0000 C   0  0  0  0  0  0  0  0  0  0  0  0
    9.4964    0.8250    0.0000 C   0  0  0  0  0  0  0  0  0  0  0  0
   10.0365    1.4486    0.0000 O   0  0  0  0  0  0  0  0  0  0  0  0
    9.7664    0.0454    0.0000 C   0  0  0  0  0  0  0  0  0  0  0  0
   10.5766   -0.1105    0.0000 C   0  0  0  0  0  0  0  0  0  0  0  0
   11.1167    0.5132    0.0000 C   0  0  0  0  0  0  0  0  0  0  0  0
   11.9268    0.3573    0.0000 C   0  0  0  0  0  0  0  0  0  0  0  0
   12.1968   -0.4223    0.0000 C   0  0  0  0  0  0  0  0  0  0  0  0
   11.6567   -1.0459    0.0000 C   0  0  0  0  0  0  0  0  0  0  0  0
   10.8466   -0.8900    0.0000 C   0  0  0  0  0  0  0  0  0  0  0  0
   10.3065   -1.5137    0.0000 C   0  0  0  0  0  0  0  0  0  0  0  0
   10.5766   -2.2932    0.0000 C   0  0  0  0  0  0  0  0  0  0  0  0
   10.0365   -2.9168    0.0000 C   0  0  0  0  0  0  0  0  0  0  0  0
   10.3065   -3.6964    0.0000 Cl  0  0  0  0  0  0  0  0  0  0  0  0
    9.2263   -2.7609    0.0000 C   0  0  0  0  0  0  0  0  0  0  0  0
    8.9563   -1.9814    0.0000 C   0  0  0  0  0  0  0  0  0  0  0  0
    8.1462   -1.8255    0.0000 Cl  0  0  0  0  0  0  0  0  0  0  0  0
    9.4964   -1.3577    0.0000 C   0  0  0  0  0  0  0  0  0  0  0  0
    9.2263   -0.5782    0.0000 C   0  0  0  0  0  0  0  0  0  0  0  0
   13.0070   -0.5782    0.0000 C   0  0  0  0  0  0  0  0  0  0  0  0
   13.8171   -0.7341    0.0000 F   0  0  0  0  0  0  0  0  0  0  0  0
   12.8511   -1.3883    0.0000 F   0  0  0  0  0  0  0  0  0  0  0  0
   13.1629    0.2319    0.0000 F   0  0  0  0  0  0  0  0  0  0  0  0
  1  2  1  0  0  0  0
  2  3  1  0  0  0  0
  3  4  1  0  0  0  0
  4  5  1  0  0  0  0
  5  6  1  0  0  0  0
  6  7  1  0  0  0  0
  7  8  1  0  0  0  0
  8  9  1  0  0  0  0
  5 10  1  0  0  0  0
 10 11  1  0  0  0  0
 11 12  1  0  0  0  0
 12 13  1  0  0  0  0
 12 14  1  0  0  0  0
 14 15  4  0  0  0  0
 15 16  4  0  0  0  0
 16 17  4  0  0  0  0
 17 18  4  0  0  0  0
 18 19  4  0  0  0  0
 19 20  4  0  0  0  0
 15 20  4  0  0  0  0
 20 21  4  0  0  0  0
 21 22  4  0  0  0  0
 22 23  4  0  0  0  0
 23 24  1  0  0  0  0
 23 25  4  0  0  0  0
 25 26  4  0  0  0  0
 26 27  1  0  0  0  0
 26 28  4  0  0  0  0
 21 28  4  0  0  0  0
 28 29  4  0  0  0  0
 14 29  4  0  0  0  0
 18 30  1  0  0  0  0
 30 31  1  0  0  0  0
 30 32  1  0  0  0  0
 30 33  1  0  0  0  0
M  END
>  <ID>
1350

>  <PREFERRED_NAME>
halofantrine

>  <CAS_RN>
69756-53-2

>  <SYNONYMS>
halofantrine
halofantrine hydrochloride
halfan
halofantrine HCl

>  <URL>
http://drugcentral.org/drugcard/1350/view

$$$$
