hepronicate
  -INDIGO-06102311002D

 37 39  0  0  0  0  0  0  0  0999 V2000
   -1.1270    2.5559    0.0000 C   0  0  0  0  0  0  0  0  0  0  0  0
   -0.3020    2.5559    0.0000 C   0  0  0  0  0  0  0  0  0  0  0  0
    0.1105    1.8414    0.0000 C   0  0  0  0  0  0  0  0  0  0  0  0
    0.9355    1.8414    0.0000 C   0  0  0  0  0  0  0  0  0  0  0  0
    1.3480    1.1270    0.0000 C   0  0  0  0  0  0  0  0  0  0  0  0
    2.1730    1.1270    0.0000 C   0  0  0  0  0  0  0  0  0  0  0  0
    2.5855    1.8414    0.0000 C   0  0  0  0  0  0  0  0  0  0  0  0
    3.3000    1.4289    0.0000 C   0  0  0  0  0  0  0  0  0  0  0  0
    3.3000    0.6039    0.0000 O   0  0  0  0  0  0  0  0  0  0  0  0
    4.0145    0.1914    0.0000 C   0  0  0  0  0  0  0  0  0  0  0  0
    4.7289    0.6039    0.0000 O   0  0  0  0  0  0  0  0  0  0  0  0
    4.0145   -0.6336    0.0000 C   0  0  0  0  0  0  0  0  0  0  0  0
    4.7289   -1.0461    0.0000 C   0  0  0  0  0  0  0  0  0  0  0  0
    4.7289   -1.8711    0.0000 N   0  0  0  0  0  0  0  0  0  0  0  0
    4.0145   -2.2836    0.0000 C   0  0  0  0  0  0  0  0  0  0  0  0
    3.3000   -1.8711    0.0000 C   0  0  0  0  0  0  0  0  0  0  0  0
    3.3000   -1.0461    0.0000 C   0  0  0  0  0  0  0  0  0  0  0  0
    1.8711    2.2539    0.0000 C   0  0  0  0  0  0  0  0  0  0  0  0
    1.8711    3.0789    0.0000 O   0  0  0  0  0  0  0  0  0  0  0  0
    1.1566    3.4914    0.0000 C   0  0  0  0  0  0  0  0  0  0  0  0
    0.4421    3.0789    0.0000 O   0  0  0  0  0  0  0  0  0  0  0  0
    1.1566    4.3164    0.0000 C   0  0  0  0  0  0  0  0  0  0  0  0
    0.4421    4.7289    0.0000 C   0  0  0  0  0  0  0  0  0  0  0  0
    0.4421    5.5539    0.0000 N   0  0  0  0  0  0  0  0  0  0  0  0
    1.1566    5.9664    0.0000 C   0  0  0  0  0  0  0  0  0  0  0  0
    1.8711    5.5539    0.0000 C   0  0  0  0  0  0  0  0  0  0  0  0
    1.8711    4.7289    0.0000 C   0  0  0  0  0  0  0  0  0  0  0  0
    2.9980    2.5559    0.0000 C   0  0  0  0  0  0  0  0  0  0  0  0
    3.8230    2.5559    0.0000 O   0  0  0  0  0  0  0  0  0  0  0  0
    4.2355    1.8414    0.0000 C   0  0  0  0  0  0  0  0  0  0  0  0
    3.8230    1.1270    0.0000 O   0  0  0  0  0  0  0  0  0  0  0  0
    5.0605    1.8414    0.0000 C   0  0  0  0  0  0  0  0  0  0  0  0
    5.4730    2.5559    0.0000 C   0  0  0  0  0  0  0  0  0  0  0  0
    6.2980    2.5559    0.0000 N   0  0  0  0  0  0  0  0  0  0  0  0
    6.7105    1.8414    0.0000 C   0  0  0  0  0  0  0  0  0  0  0  0
    6.2980    1.1270    0.0000 C   0  0  0  0  0  0  0  0  0  0  0  0
    5.4730    1.1270    0.0000 C   0  0  0  0  0  0  0  0  0  0  0  0
  1  2  1  0  0  0  0
  2  3  1  0  0  0  0
  3  4  1  0  0  0  0
  4  5  1  0  0  0  0
  5  6  1  0  0  0  0
  6  7  1  0  0  0  0
  7  8  1  0  0  0  0
  8  9  1  0  0  0  0
  9 10  1  0  0  0  0
 10 11  2  0  0  0  0
 10 12  1  0  0  0  0
 12 13  4  0  0  0  0
 13 14  4  0  0  0  0
 14 15  4  0  0  0  0
 15 16  4  0  0  0  0
 16 17  4  0  0  0  0
 12 17  4  0  0  0  0
  7 18  1  0  0  0  0
 18 19  1  0  0  0  0
 19 20  1  0  0  0  0
 20 21  2  0  0  0  0
 20 22  1  0  0  0  0
 22 23  4  0  0  0  0
 23 24  4  0  0  0  0
 24 25  4  0  0  0  0
 25 26  4  0  0  0  0
 26 27  4  0  0  0  0
 22 27  4  0  0  0  0
  7 28  1  0  0  0  0
 28 29  1  0  0  0  0
 29 30  1  0  0  0  0
 30 31  2  0  0  0  0
 30 32  1  0  0  0  0
 32 33  4  0  0  0  0
 33 34  4  0  0  0  0
 34 35  4  0  0  0  0
 35 36  4  0  0  0  0
 36 37  4  0  0  0  0
 32 37  4  0  0  0  0
M  END
>  <ID>
1359

>  <PREFERRED_NAME>
hepronicate

>  <CAS_RN>
7237-81-2

>  <SYNONYMS>
hepronicate
megrin

>  <URL>
http://drugcentral.org/drugcard/1359/view

$$$$
