heptabarb
  -INDIGO-06102311002D

 18 19  0  0  0  0  0  0  0  0999 V2000
    0.5897    0.1794    0.0000 C   0  0  0  0  0  0  0  0  0  0  0  0
    0.3075   -0.5959    0.0000 C   0  0  0  0  0  0  0  0  0  0  0  0
    0.8378   -1.2278    0.0000 C   0  0  0  0  0  0  0  0  0  0  0  0
    1.5523   -1.6403    0.0000 C   0  0  0  0  0  0  0  0  0  0  0  0
    2.2667   -1.2278    0.0000 O   0  0  0  0  0  0  0  0  0  0  0  0
    1.5523   -2.4653    0.0000 N   0  0  0  0  0  0  0  0  0  0  0  0
    0.8378   -2.8778    0.0000 C   0  0  0  0  0  0  0  0  0  0  0  0
    0.8378   -3.7028    0.0000 O   0  0  0  0  0  0  0  0  0  0  0  0
    0.1233   -2.4653    0.0000 N   0  0  0  0  0  0  0  0  0  0  0  0
    0.1233   -1.6403    0.0000 C   0  0  0  0  0  0  0  0  0  0  0  0
   -0.5911   -1.2278    0.0000 O   0  0  0  0  0  0  0  0  0  0  0  0
    1.3681   -0.5959    0.0000 C   0  0  0  0  0  0  0  0  0  0  0  0
    1.0288    0.1561    0.0000 C   0  0  0  0  0  0  0  0  0  0  0  0
    1.4052    0.8903    0.0000 C   0  0  0  0  0  0  0  0  0  0  0  0
    2.2138    1.0538    0.0000 C   0  0  0  0  0  0  0  0  0  0  0  0
    2.8458    0.5235    0.0000 C   0  0  0  0  0  0  0  0  0  0  0  0
    2.8252   -0.3013    0.0000 C   0  0  0  0  0  0  0  0  0  0  0  0
    2.1676   -0.7994    0.0000 C   0  0  0  0  0  0  0  0  0  0  0  0
  1  2  1  0  0  0  0
  2  3  1  0  0  0  0
  3  4  1  0  0  0  0
  4  5  2  0  0  0  0
  4  6  1  0  0  0  0
  6  7  1  0  0  0  0
  7  8  2  0  0  0  0
  7  9  1  0  0  0  0
  9 10  1  0  0  0  0
  3 10  1  0  0  0  0
 10 11  2  0  0  0  0
  3 12  1  0  0  0  0
 12 13  2  0  0  0  0
 13 14  1  0  0  0  0
 14 15  1  0  0  0  0
 15 16  1  0  0  0  0
 16 17  1  0  0  0  0
 17 18  1  0  0  0  0
 12 18  1  0  0  0  0
M  END
>  <ID>
1360

>  <PREFERRED_NAME>
heptabarb

>  <CAS_RN>
509-86-4

>  <SYNONYMS>
heptabarb
heptabarbital
heptabarbitone
heptabarbum

>  <URL>
http://drugcentral.org/drugcard/1360/view

$$$$
