hexetidine
  -INDIGO-06102311092D

 24 24  0  0  0  0  0  0  0  0999 V2000
   -7.2039    1.4289    0.0000 C   0  0  0  0  0  0  0  0  0  0  0  0
   -6.3789    1.4289    0.0000 C   0  0  0  0  0  0  0  0  0  0  0  0
   -5.9664    0.7145    0.0000 C   0  0  0  0  0  0  0  0  0  0  0  0
   -5.1414    0.7145    0.0000 C   0  0  0  0  0  0  0  0  0  0  0  0
   -4.7289    0.0000    0.0000 C   0  0  0  0  0  0  0  0  0  0  0  0
   -5.1414   -0.7145    0.0000 C   0  0  0  0  0  0  0  0  0  0  0  0
   -4.7289   -1.4289    0.0000 C   0  0  0  0  0  0  0  0  0  0  0  0
   -3.9039    0.0000    0.0000 C   0  0  0  0  0  0  0  0  0  0  0  0
   -3.4914   -0.7145    0.0000 N   0  0  0  0  0  0  0  0  0  0  0  0
   -2.6664   -0.7145    0.0000 C   0  0  0  0  0  0  0  0  0  0  0  0
   -2.2539   -1.4289    0.0000 N   0  0  0  0  0  0  0  0  0  0  0  0
   -1.4289   -1.4289    0.0000 C   0  0  0  0  0  0  0  0  0  0  0  0
   -1.0164   -0.7145    0.0000 C   0  0  0  0  0  0  0  0  0  0  0  0
   -1.4289    0.0000    0.0000 C   0  0  0  0  0  0  0  0  0  0  0  0
   -1.0164    0.7145    0.0000 C   0  0  0  0  0  0  0  0  0  0  0  0
   -0.1914   -0.7145    0.0000 C   0  0  0  0  0  0  0  0  0  0  0  0
    0.2211    0.0000    0.0000 C   0  0  0  0  0  0  0  0  0  0  0  0
    1.0461    0.0000    0.0000 C   0  0  0  0  0  0  0  0  0  0  0  0
    1.4586    0.7145    0.0000 C   0  0  0  0  0  0  0  0  0  0  0  0
   -2.6664   -2.1434    0.0000 C   0  0  0  0  0  0  0  0  0  0  0  0
   -3.4914   -2.1434    0.0000 C   0  0  0  0  0  0  0  0  0  0  0  0
   -3.3482   -2.9559    0.0000 C   0  0  0  0  0  0  0  0  0  0  0  0
   -4.2667   -2.4256    0.0000 N   0  0  0  0  0  0  0  0  0  0  0  0
   -3.9039   -1.4289    0.0000 C   0  0  0  0  0  0  0  0  0  0  0  0
  1  2  1  0  0  0  0
  2  3  1  0  0  0  0
  3  4  1  0  0  0  0
  4  5  1  0  0  0  0
  5  6  1  0  0  0  0
  6  7  1  0  0  0  0
  5  8  1  0  0  0  0
  8  9  1  0  0  0  0
  9 10  1  0  0  0  0
 10 11  1  0  0  0  0
 11 12  1  0  0  0  0
 12 13  1  0  0  0  0
 13 14  1  0  0  0  0
 14 15  1  0  0  0  0
 13 16  1  0  0  0  0
 16 17  1  0  0  0  0
 17 18  1  0  0  0  0
 18 19  1  0  0  0  0
 11 20  1  0  0  0  0
 20 21  1  0  0  0  0
 21 22  1  0  0  0  0
 21 23  1  0  0  0  0
 21 24  1  0  0  0  0
  9 24  1  0  0  0  0
M  END
>  <ID>
3277

>  <PREFERRED_NAME>
hexetidine

>  <CAS_RN>
141-94-6

>  <SYNONYMS>
hexetidine
glypesin
hexoral

>  <URL>
http://drugcentral.org/drugcard/3277/view

$$$$
