histrelin
  -INDIGO-06102311072D

 96103  0  0  1  0  0  0  0  0999 V2000
   -1.6574   -7.9507    0.0000 C   0  0  0  0  0  0  0  0  0  0  0  0
   -1.4024   -8.7353    0.0000 C   0  0  0  0  0  0  0  0  0  0  0  0
   -0.5955   -8.9068    0.0000 N   0  0  0  0  0  0  0  0  0  0  0  0
   -0.3405   -9.6914    0.0000 C   0  0  0  0  0  0  0  0  0  0  0  0
   -0.8926  -10.3045    0.0000 O   0  0  0  0  0  0  0  0  0  0  0  0
    0.4664   -9.8630    0.0000 C   0  0  2  0  0  0  0  0  0  0  0  0
    1.0795   -9.3109    0.0000 C   0  0  0  0  0  0  0  0  0  0  0  0
    1.7940   -9.7234    0.0000 C   0  0  0  0  0  0  0  0  0  0  0  0
    1.6225  -10.5304    0.0000 C   0  0  0  0  0  0  0  0  0  0  0  0
    0.8020  -10.6166    0.0000 N   0  0  0  0  0  0  0  0  0  0  0  0
    0.3895  -11.3311    0.0000 C   0  0  0  0  0  0  0  0  0  0  0  0
   -0.4355  -11.3311    0.0000 O   0  0  0  0  0  0  0  0  0  0  0  0
    0.8020  -12.0456    0.0000 C   0  0  2  0  0  0  0  0  0  0  0  0
    0.3895  -12.7601    0.0000 C   0  0  0  0  0  0  0  0  0  0  0  0
   -0.4355  -12.7601    0.0000 C   0  0  0  0  0  0  0  0  0  0  0  0
   -0.8480  -13.4745    0.0000 C   0  0  0  0  0  0  0  0  0  0  0  0
   -1.6730  -13.4745    0.0000 N   0  0  0  0  0  0  0  0  0  0  0  0
   -2.0855  -14.1890    0.0000 C   0  0  0  0  0  0  0  0  0  0  0  0
   -1.6730  -14.9035    0.0000 N   0  0  0  0  0  0  0  0  0  0  0  0
   -2.9105  -14.1890    0.0000 N   0  0  0  0  0  0  0  0  0  0  0  0
    1.6270  -12.0456    0.0000 N   0  0  0  0  0  0  0  0  0  0  0  0
    2.0395  -12.7601    0.0000 C   0  0  0  0  0  0  0  0  0  0  0  0
    1.6270  -13.4745    0.0000 O   0  0  0  0  0  0  0  0  0  0  0  0
    2.8645  -12.7601    0.0000 C   0  0  2  0  0  0  0  0  0  0  0  0
    3.2770  -12.0456    0.0000 C   0  0  0  0  0  0  0  0  0  0  0  0
    2.8645  -11.3311    0.0000 C   0  0  0  0  0  0  0  0  0  0  0  0
    2.0395  -11.3311    0.0000 C   0  0  0  0  0  0  0  0  0  0  0  0
    3.2770  -10.6166    0.0000 C   0  0  0  0  0  0  0  0  0  0  0  0
    3.2770  -13.4745    0.0000 N   0  0  0  0  0  0  0  0  0  0  0  0
    4.1020  -13.4745    0.0000 C   0  0  0  0  0  0  0  0  0  0  0  0
    4.5145  -12.7601    0.0000 O   0  0  0  0  0  0  0  0  0  0  0  0
    4.5145  -14.1890    0.0000 C   0  0  1  0  0  0  0  0  0  0  0  0
    4.1020  -14.9035    0.0000 C   0  0  0  0  0  0  0  0  0  0  0  0
    3.2770  -14.9035    0.0000 C   0  0  0  0  0  0  0  0  0  0  0  0
    2.7921  -15.5709    0.0000 C   0  0  0  0  0  0  0  0  0  0  0  0
    2.0075  -15.3160    0.0000 N   0  0  0  0  0  0  0  0  0  0  0  0
    1.3400  -15.8009    0.0000 C   0  0  0  0  0  0  0  0  0  0  0  0
    0.5863  -15.4653    0.0000 C   0  0  0  0  0  0  0  0  0  0  0  0
   -0.0811  -15.9503    0.0000 C   0  0  0  0  0  0  0  0  0  0  0  0
   -0.8348  -15.6147    0.0000 C   0  0  0  0  0  0  0  0  0  0  0  0
   -0.9210  -14.7942    0.0000 C   0  0  0  0  0  0  0  0  0  0  0  0
   -0.2536  -14.3093    0.0000 C   0  0  0  0  0  0  0  0  0  0  0  0
    0.5001  -14.6449    0.0000 C   0  0  0  0  0  0  0  0  0  0  0  0
    2.0075  -14.4910    0.0000 C   0  0  0  0  0  0  0  0  0  0  0  0
    2.7921  -14.2360    0.0000 N   0  0  0  0  0  0  0  0  0  0  0  0
    5.3395  -14.1890    0.0000 N   0  0  0  0  0  0  0  0  0  0  0  0
    5.7520  -14.9035    0.0000 C   0  0  0  0  0  0  0  0  0  0  0  0
    5.3395  -15.6179    0.0000 O   0  0  0  0  0  0  0  0  0  0  0  0
    6.5770  -14.9035    0.0000 C   0  0  2  0  0  0  0  0  0  0  0  0
    6.9895  -14.1890    0.0000 C   0  0  0  0  0  0  0  0  0  0  0  0
    6.5770  -13.4745    0.0000 C   0  0  0  0  0  0  0  0  0  0  0  0
    5.7520  -13.4745    0.0000 C   0  0  0  0  0  0  0  0  0  0  0  0
    5.3395  -12.7601    0.0000 C   0  0  0  0  0  0  0  0  0  0  0  0
    5.7520  -12.0456    0.0000 C   0  0  0  0  0  0  0  0  0  0  0  0
    5.3395  -11.3311    0.0000 O   0  0  0  0  0  0  0  0  0  0  0  0
    6.5770  -12.0456    0.0000 C   0  0  0  0  0  0  0  0  0  0  0  0
    6.9895  -12.7601    0.0000 C   0  0  0  0  0  0  0  0  0  0  0  0
    6.9895  -15.6179    0.0000 N   0  0  0  0  0  0  0  0  0  0  0  0
    7.8145  -15.6179    0.0000 C   0  0  0  0  0  0  0  0  0  0  0  0
    8.2270  -14.9035    0.0000 O   0  0  0  0  0  0  0  0  0  0  0  0
    8.2270  -16.3324    0.0000 C   0  0  2  0  0  0  0  0  0  0  0  0
    7.8145  -17.0469    0.0000 C   0  0  0  0  0  0  0  0  0  0  0  0
    6.9895  -17.0469    0.0000 O   0  0  0  0  0  0  0  0  0  0  0  0
    9.0520  -16.3324    0.0000 N   0  0  0  0  0  0  0  0  0  0  0  0
    9.4645  -17.0469    0.0000 C   0  0  0  0  0  0  0  0  0  0  0  0
    9.0520  -17.7614    0.0000 O   0  0  0  0  0  0  0  0  0  0  0  0
   10.2895  -17.0469    0.0000 C   0  0  2  0  0  0  0  0  0  0  0  0
   10.7020  -17.7614    0.0000 C   0  0  0  0  0  0  0  0  0  0  0  0
   10.2895  -18.4758    0.0000 C   0  0  0  0  0  0  0  0  0  0  0  0
    9.4690  -18.5621    0.0000 C   0  0  0  0  0  0  0  0  0  0  0  0
    9.2975  -19.3690    0.0000 N   0  0  0  0  0  0  0  0  0  0  0  0
   10.0120  -19.7815    0.0000 C   0  0  0  0  0  0  0  0  0  0  0  0
   10.6251  -19.2295    0.0000 C   0  0  0  0  0  0  0  0  0  0  0  0
   11.4097  -19.4844    0.0000 C   0  0  0  0  0  0  0  0  0  0  0  0
   11.5812  -20.2914    0.0000 C   0  0  0  0  0  0  0  0  0  0  0  0
   10.9681  -20.8434    0.0000 C   0  0  0  0  0  0  0  0  0  0  0  0
   10.1835  -20.5885    0.0000 C   0  0  0  0  0  0  0  0  0  0  0  0
   10.7020  -16.3324    0.0000 N   0  0  0  0  0  0  0  0  0  0  0  0
   10.2895  -15.6179    0.0000 C   0  0  0  0  0  0  0  0  0  0  0  0
    9.4645  -15.6179    0.0000 O   0  0  0  0  0  0  0  0  0  0  0  0
   10.7020  -14.9035    0.0000 C   0  0  2  0  0  0  0  0  0  0  0  0
   11.5270  -14.9035    0.0000 C   0  0  0  0  0  0  0  0  0  0  0  0
   11.9395  -15.6179    0.0000 C   0  0  0  0  0  0  0  0  0  0  0  0
   12.7600  -15.7042    0.0000 C   0  0  0  0  0  0  0  0  0  0  0  0
   12.9315  -16.5112    0.0000 N   0  0  0  0  0  0  0  0  0  0  0  0
   12.2170  -16.9237    0.0000 C   0  0  0  0  0  0  0  0  0  0  0  0
   11.6039  -16.3716    0.0000 N   0  0  0  0  0  0  0  0  0  0  0  0
   10.2895  -14.1890    0.0000 N   0  0  0  0  0  0  0  0  0  0  0  0
   10.7020  -13.4745    0.0000 C   0  0  0  0  0  0  0  0  0  0  0  0
   11.5270  -13.4745    0.0000 O   0  0  0  0  0  0  0  0  0  0  0  0
   10.2895  -12.7601    0.0000 C   0  0  2  0  0  0  0  0  0  0  0  0
   10.6251  -12.0064    0.0000 C   0  0  0  0  0  0  0  0  0  0  0  0
   10.0120  -11.4544    0.0000 C   0  0  0  0  0  0  0  0  0  0  0  0
    9.2975  -11.8669    0.0000 C   0  0  0  0  0  0  0  0  0  0  0  0
    8.5438  -11.5313    0.0000 O   0  0  0  0  0  0  0  0  0  0  0  0
    9.4690  -12.6738    0.0000 N   0  0  0  0  0  0  0  0  0  0  0  0
  1  2  1  0  0  0  0
  2  3  1  0  0  0  0
  3  4  1  0  0  0  0
  4  5  2  0  0  0  0
  6  4  1  6  0  0  0
  6  7  1  0  0  0  0
  7  8  1  0  0  0  0
  8  9  1  0  0  0  0
  9 10  1  0  0  0  0
  6 10  1  0  0  0  0
 10 11  1  0  0  0  0
 11 12  2  0  0  0  0
 11 13  1  0  0  0  0
 13 14  1  0  0  0  0
 14 15  1  0  0  0  0
 15 16  1  0  0  0  0
 16 17  1  0  0  0  0
 17 18  1  0  0  0  0
 18 19  1  0  0  0  0
 18 20  2  0  0  0  0
 13 21  1  1  0  0  0
 21 22  1  0  0  0  0
 22 23  2  0  0  0  0
 22 24  1  0  0  0  0
 24 25  1  0  0  0  0
 25 26  1  0  0  0  0
 26 27  1  0  0  0  0
 26 28  1  0  0  0  0
 24 29  1  6  0  0  0
 29 30  1  0  0  0  0
 30 31  2  0  0  0  0
 30 32  1  0  0  0  0
 32 33  1  0  0  0  0
 33 34  1  0  0  0  0
 34 35  4  0  0  0  0
 35 36  4  0  0  0  0
 36 37  1  0  0  0  0
 37 38  1  0  0  0  0
 38 39  4  0  0  0  0
 39 40  4  0  0  0  0
 40 41  4  0  0  0  0
 41 42  4  0  0  0  0
 42 43  4  0  0  0  0
 38 43  4  0  0  0  0
 36 44  4  0  0  0  0
 44 45  4  0  0  0  0
 34 45  4  0  0  0  0
 32 46  1  6  0  0  0
 46 47  1  0  0  0  0
 47 48  2  0  0  0  0
 47 49  1  0  0  0  0
 49 50  1  0  0  0  0
 50 51  1  0  0  0  0
 51 52  4  0  0  0  0
 52 53  4  0  0  0  0
 53 54  4  0  0  0  0
 54 55  1  0  0  0  0
 54 56  4  0  0  0  0
 56 57  4  0  0  0  0
 51 57  4  0  0  0  0
 49 58  1  6  0  0  0
 58 59  1  0  0  0  0
 59 60  2  0  0  0  0
 59 61  1  0  0  0  0
 61 62  1  0  0  0  0
 62 63  1  0  0  0  0
 61 64  1  1  0  0  0
 64 65  1  0  0  0  0
 65 66  2  0  0  0  0
 65 67  1  0  0  0  0
 67 68  1  0  0  0  0
 68 69  1  0  0  0  0
 69 70  4  0  0  0  0
 70 71  4  0  0  0  0
 71 72  4  0  0  0  0
 72 73  4  0  0  0  0
 69 73  4  0  0  0  0
 73 74  4  0  0  0  0
 74 75  4  0  0  0  0
 75 76  4  0  0  0  0
 76 77  4  0  0  0  0
 72 77  4  0  0  0  0
 67 78  1  1  0  0  0
 78 79  1  0  0  0  0
 79 80  2  0  0  0  0
 79 81  1  0  0  0  0
 81 82  1  0  0  0  0
 82 83  1  0  0  0  0
 83 84  4  0  0  0  0
 84 85  4  0  0  0  0
 85 86  4  0  0  0  0
 86 87  4  0  0  0  0
 83 87  4  0  0  0  0
 81 88  1  1  0  0  0
 88 89  1  0  0  0  0
 89 90  2  0  0  0  0
 91 89  1  1  0  0  0
 91 92  1  0  0  0  0
 92 93  1  0  0  0  0
 93 94  1  0  0  0  0
 94 95  2  0  0  0  0
 94 96  1  0  0  0  0
 91 96  1  0  0  0  0
M  STY  2   1 DAT   2 DAT
M  SLB  2   1   1   2   2
M  SAL   1  1  85
M  SDT   1 MRV_IMPLICIT_H
M  SDD   1     0.0000    0.0000    DA    ALL  1       1
M  SED   1 IMPL_H1
M  SAL   2  1  71
M  SDT   2 MRV_IMPLICIT_H
M  SDD   2     0.0000    0.0000    DA    ALL  1       1
M  SED   2 IMPL_H1
M  END
>  <ID>
2975

>  <PREFERRED_NAME>
histrelin

>  <CAS_RN>
76712-82-8

>  <SYNONYMS>
histrelin
vantas
Luteinizing hormone-releasing factor (pig)
histrelin acetate

>  <URL>
http://drugcentral.org/drugcard/2975/view

$$$$
