hydroxyestrone diacetate
  -INDIGO-06102311082D

 27 30  0  0  1  0  0  0  0  0999 V2000
   -4.9127   -2.2027    0.0000 C   0  0  0  0  0  0  0  0  0  0  0  0
   -4.1367   -1.9224    0.0000 C   0  0  0  0  0  0  0  0  0  0  0  0
   -3.9915   -1.1102    0.0000 O   0  0  0  0  0  0  0  0  0  0  0  0
   -3.5060   -2.4542    0.0000 O   0  0  0  0  0  0  0  0  0  0  0  0
   -2.7301   -2.1739    0.0000 C   0  0  2  0  0  0  0  0  0  0  0  0
   -2.0473   -2.6369    0.0000 C   0  0  0  0  0  0  0  0  0  0  0  0
   -1.3959   -2.1305    0.0000 C   0  0  1  0  0  0  0  0  0  0  0  0
   -0.5838   -2.2757    0.0000 C   0  0  2  0  0  0  0  0  0  0  0  0
   -0.3035   -3.0516    0.0000 C   0  0  0  0  0  0  0  0  0  0  0  0
    0.5086   -3.1969    0.0000 C   0  0  0  0  0  0  0  0  0  0  0  0
    1.0404   -2.5662    0.0000 C   0  0  0  0  0  0  0  0  0  0  0  0
    0.7601   -1.7902    0.0000 C   0  0  0  0  0  0  0  0  0  0  0  0
    1.2920   -1.1595    0.0000 C   0  0  0  0  0  0  0  0  0  0  0  0
    2.1041   -1.3047    0.0000 C   0  0  0  0  0  0  0  0  0  0  0  0
    2.3844   -2.0807    0.0000 C   0  0  0  0  0  0  0  0  0  0  0  0
    3.1965   -2.2259    0.0000 O   0  0  0  0  0  0  0  0  0  0  0  0
    3.4768   -3.0018    0.0000 C   0  0  0  0  0  0  0  0  0  0  0  0
    4.2889   -3.1470    0.0000 C   0  0  0  0  0  0  0  0  0  0  0  0
    2.9450   -3.6325    0.0000 O   0  0  0  0  0  0  0  0  0  0  0  0
    1.8526   -2.7114    0.0000 C   0  0  0  0  0  0  0  0  0  0  0  0
   -0.0520   -1.6450    0.0000 C   0  0  1  0  0  0  0  0  0  0  0  0
   -0.3323   -0.8691    0.0000 C   0  0  0  0  0  0  0  0  0  0  0  0
   -1.1444   -0.7239    0.0000 C   0  0  0  0  0  0  0  0  0  0  0  0
   -1.6762   -1.3546    0.0000 C   0  0  1  0  0  0  0  0  0  0  0  0
   -2.0361   -0.6122    0.0000 C   0  0  0  0  0  0  0  0  0  0  0  0
   -2.5008   -1.3814    0.0000 C   0  0  0  0  0  0  0  0  0  0  0  0
   -3.0071   -0.7301    0.0000 O   0  0  0  0  0  0  0  0  0  0  0  0
  1  2  1  0  0  0  0
  2  3  2  0  0  0  0
  2  4  1  0  0  0  0
  5  4  1  1  0  0  0
  5  6  1  0  0  0  0
  7  6  1  6  0  0  0
  7  8  1  0  0  0  0
  8  9  1  1  0  0  0
  9 10  1  0  0  0  0
 10 11  1  0  0  0  0
 11 12  4  0  0  0  0
 12 13  4  0  0  0  0
 13 14  4  0  0  0  0
 14 15  4  0  0  0  0
 15 16  1  0  0  0  0
 16 17  1  0  0  0  0
 17 18  1  0  0  0  0
 17 19  2  0  0  0  0
 15 20  4  0  0  0  0
 11 20  4  0  0  0  0
 21 12  1  6  0  0  0
  8 21  1  0  0  0  0
 21 22  1  0  0  0  0
 22 23  1  0  0  0  0
 23 24  1  0  0  0  0
  7 24  1  0  0  0  0
 24 25  1  6  0  0  0
 24 26  1  0  0  0  0
  5 26  1  0  0  0  0
 26 27  2  0  0  0  0
M  END
>  <ID>
3115

>  <PREFERRED_NAME>
hydroxyestrone diacetate

>  <CAS_RN>
1247-71-8

>  <SYNONYMS>
hydroxyestrone diacetate
colpormon
colpogynon

>  <URL>
http://drugcentral.org/drugcard/3115/view

$$$$
