hydromorphone
  -INDIGO-06102311012D

 21 25  0  0  1  0  0  0  0  0999 V2000
    1.3687   -3.6166    0.0000 C   0  0  0  0  0  0  0  0  0  0  0  0
    1.4911   -2.8007    0.0000 N   0  0  0  0  0  0  0  0  0  0  0  0
    0.9178   -2.2274    0.0000 C   0  0  0  0  0  0  0  0  0  0  0  0
    1.2516   -1.2767    0.0000 C   0  0  0  0  0  0  0  0  0  0  0  0
    2.0883   -1.0030    0.0000 C   0  0  1  0  0  0  0  0  0  0  0  0
    1.7813   -0.2307    0.0000 C   0  0  1  0  0  0  0  0  0  0  0  0
    2.4947    0.2329    0.0000 O   0  0  0  0  0  0  0  0  0  0  0  0
    3.2120   -0.2394    0.0000 C   0  0  0  0  0  0  0  0  0  0  0  0
    2.9315   -1.0038    0.0000 C   0  0  0  0  0  0  0  0  0  0  0  0
    3.3909   -1.7147    0.0000 C   0  0  0  0  0  0  0  0  0  0  0  0
    3.0088   -2.4505    0.0000 C   0  0  0  0  0  0  0  0  0  0  0  0
    2.2017   -2.4239    0.0000 C   0  0  2  0  0  0  0  0  0  0  0  0
    1.8663   -1.5883    0.0000 C   0  0  2  0  0  0  0  0  0  0  0  0
    0.9058   -1.6659    0.0000 C   0  0  0  0  0  0  0  0  0  0  0  0
    0.4560   -0.9584    0.0000 C   0  0  0  0  0  0  0  0  0  0  0  0
    0.9127   -0.2516    0.0000 C   0  0  0  0  0  0  0  0  0  0  0  0
    0.5095    0.4682    0.0000 O   0  0  0  0  0  0  0  0  0  0  0  0
    4.2110   -1.6448    0.0000 C   0  0  0  0  0  0  0  0  0  0  0  0
    4.5505   -0.8890    0.0000 C   0  0  0  0  0  0  0  0  0  0  0  0
    4.0607   -0.2061    0.0000 C   0  0  0  0  0  0  0  0  0  0  0  0
    4.4230    0.5351    0.0000 O   0  0  0  0  0  0  0  0  0  0  0  0
  1  2  1  0  0  0  0
  2  3  1  0  0  0  0
  3  4  1  0  0  0  0
  4  5  1  0  0  0  0
  5  6  1  0  0  0  0
  6  7  1  6  0  0  0
  7  8  1  0  0  0  0
  8  9  4  0  0  0  0
  5  9  1  1  0  0  0
  9 10  4  0  0  0  0
 10 11  1  0  0  0  0
 11 12  1  0  0  0  0
 12  2  1  1  0  0  0
 12 13  1  0  0  0  0
  5 13  1  0  0  0  0
 13 14  1  6  0  0  0
 14 15  1  0  0  0  0
 15 16  1  0  0  0  0
  6 16  1  0  0  0  0
 16 17  2  0  0  0  0
 10 18  4  0  0  0  0
 18 19  4  0  0  0  0
 19 20  4  0  0  0  0
  8 20  4  0  0  0  0
 20 21  1  0  0  0  0
M  END
>  <ID>
1393

>  <PREFERRED_NAME>
hydromorphone

>  <CAS_RN>
466-99-9

>  <SYNONYMS>
hydromorphone
dihydromorphinone
dihydromorphone
dimorphone
hydromorphon
hydromorphone hydrochloride
hydromorphone HCl

>  <URL>
http://drugcentral.org/drugcard/1393/view

$$$$
