hyoscyamine
  -INDIGO-06102311012D

 21 23  0  0  1  0  0  0  0  0999 V2000
    0.3528    4.2361    0.0000 C   0  0  0  0  0  0  0  0  0  0  0  0
   -0.4542    4.4076    0.0000 N   0  0  0  0  0  0  0  0  0  0  0  0
   -0.1914    5.3262    0.0000 C   0  0  1  0  0  0  0  0  0  0  0  0
   -1.0072    5.2032    0.0000 C   0  0  0  0  0  0  0  0  0  0  0  0
   -1.4197    4.4887    0.0000 C   0  0  0  0  0  0  0  0  0  0  0  0
   -1.1183    3.7208    0.0000 C   0  0  2  0  0  0  0  0  0  0  0  0
   -0.3299    3.4776    0.0000 C   0  0  0  0  0  0  0  0  0  0  0  0
    0.3517    3.9423    0.0000 C   0  0  1  0  0  0  0  0  0  0  0  0
    0.4134    4.7650    0.0000 C   0  0  0  0  0  0  0  0  0  0  0  0
    1.0662    3.5298    0.0000 O   0  0  0  0  0  0  0  0  0  0  0  0
    1.0662    2.7048    0.0000 C   0  0  0  0  0  0  0  0  0  0  0  0
    0.3517    2.2923    0.0000 O   0  0  0  0  0  0  0  0  0  0  0  0
    1.7807    2.2923    0.0000 C   0  0  2  0  0  0  0  0  0  0  0  0
    2.4951    2.7048    0.0000 C   0  0  0  0  0  0  0  0  0  0  0  0
    3.2096    2.2923    0.0000 O   0  0  0  0  0  0  0  0  0  0  0  0
    1.7807    1.4673    0.0000 C   0  0  0  0  0  0  0  0  0  0  0  0
    2.4951    1.0548    0.0000 C   0  0  0  0  0  0  0  0  0  0  0  0
    2.4951    0.2298    0.0000 C   0  0  0  0  0  0  0  0  0  0  0  0
    1.7807   -0.1827    0.0000 C   0  0  0  0  0  0  0  0  0  0  0  0
    1.0662    0.2298    0.0000 C   0  0  0  0  0  0  0  0  0  0  0  0
    1.0662    1.0548    0.0000 C   0  0  0  0  0  0  0  0  0  0  0  0
  1  2  1  0  0  0  0
  3  2  1  6  0  0  0
  3  4  1  0  0  0  0
  4  5  1  0  0  0  0
  5  6  1  0  0  0  0
  6  2  1  6  0  0  0
  6  7  1  0  0  0  0
  7  8  1  0  0  0  0
  8  9  1  0  0  0  0
  3  9  1  0  0  0  0
  8 10  1  1  0  0  0
 10 11  1  0  0  0  0
 11 12  2  0  0  0  0
 13 11  1  6  0  0  0
 13 14  1  0  0  0  0
 14 15  1  0  0  0  0
 13 16  1  0  0  0  0
 16 17  4  0  0  0  0
 17 18  4  0  0  0  0
 18 19  4  0  0  0  0
 19 20  4  0  0  0  0
 20 21  4  0  0  0  0
 16 21  4  0  0  0  0
M  END
>  <ID>
1402

>  <PREFERRED_NAME>
hyoscyamine

>  <CAS_RN>
101-31-5

>  <SYNONYMS>
hyoscyamine
hyoscyamine hydrobromide
(-)-Atropine
(-)-Hyoscyamine
L-Hyoscyamin
L-Hyoscyamine
l-Atropine
hyoscyamine sulfate

>  <URL>
http://drugcentral.org/drugcard/1402/view

$$$$
