ibandronic acid
  -INDIGO-06102311012D

 19 18  0  0  0  0  0  0  0  0999 V2000
    1.7605    1.8414    0.0000 C   0  0  0  0  0  0  0  0  0  0  0  0
    2.4750    1.4289    0.0000 C   0  0  0  0  0  0  0  0  0  0  0  0
    3.1895    1.8414    0.0000 C   0  0  0  0  0  0  0  0  0  0  0  0
    3.9039    1.4289    0.0000 C   0  0  0  0  0  0  0  0  0  0  0  0
    4.6184    1.8414    0.0000 C   0  0  0  0  0  0  0  0  0  0  0  0
    5.3329    1.4289    0.0000 N   0  0  0  0  0  0  0  0  0  0  0  0
    5.3329    0.6039    0.0000 C   0  0  0  0  0  0  0  0  0  0  0  0
    6.0474    1.8414    0.0000 C   0  0  0  0  0  0  0  0  0  0  0  0
    6.7618    1.4289    0.0000 C   0  0  0  0  0  0  0  0  0  0  0  0
    7.4763    1.8414    0.0000 C   0  0  0  0  0  0  0  0  0  0  0  0
    8.1908    2.2539    0.0000 O   0  0  0  0  0  0  0  0  0  0  0  0
    7.0638    2.5559    0.0000 P   0  0  0  0  0  0  0  0  0  0  0  0
    6.6513    3.2704    0.0000 O   0  0  0  0  0  0  0  0  0  0  0  0
    7.7783    2.9684    0.0000 O   0  0  0  0  0  0  0  0  0  0  0  0
    6.3493    2.1434    0.0000 O   0  0  0  0  0  0  0  0  0  0  0  0
    7.8888    1.1270    0.0000 P   0  0  0  0  0  0  0  0  0  0  0  0
    8.6033    1.5395    0.0000 O   0  0  0  0  0  0  0  0  0  0  0  0
    8.3013    0.4125    0.0000 O   0  0  0  0  0  0  0  0  0  0  0  0
    7.1743    0.7145    0.0000 O   0  0  0  0  0  0  0  0  0  0  0  0
  1  2  1  0  0  0  0
  2  3  1  0  0  0  0
  3  4  1  0  0  0  0
  4  5  1  0  0  0  0
  5  6  1  0  0  0  0
  6  7  1  0  0  0  0
  6  8  1  0  0  0  0
  8  9  1  0  0  0  0
  9 10  1  0  0  0  0
 10 11  1  0  0  0  0
 10 12  1  0  0  0  0
 12 13  1  0  0  0  0
 12 14  1  0  0  0  0
 12 15  2  0  0  0  0
 10 16  1  0  0  0  0
 16 17  1  0  0  0  0
 16 18  1  0  0  0  0
 16 19  2  0  0  0  0
M  END
>  <ID>
1404

>  <PREFERRED_NAME>
ibandronic acid

>  <CAS_RN>
114084-78-5

>  <SYNONYMS>
ibandronic acid
bonviva
ibandronate
boniva
ibandronate sodium

>  <URL>
http://drugcentral.org/drugcard/1404/view

$$$$
