iloprost
  -INDIGO-06102311012D

 26 27  0  0  1  0  0  0  0  0999 V2000
  -12.1070    1.9394    0.0000 C   0  0  0  0  0  0  0  0  0  0  0  0
  -11.3224    1.6845    0.0000 C   0  0  0  0  0  0  0  0  0  0  0  0
  -10.5378    1.4296    0.0000 C   0  0  0  0  0  0  0  0  0  0  0  0
   -9.7532    1.1746    0.0000 C   0  0  0  0  0  0  0  0  0  0  0  0
   -9.1401    1.7267    0.0000 C   0  0  0  0  0  0  0  0  0  0  0  0
   -9.3116    2.5336    0.0000 C   0  0  0  0  0  0  0  0  0  0  0  0
   -8.3555    1.4717    0.0000 C   0  0  2  0  0  0  0  0  0  0  0  0
   -8.1839    0.6648    0.0000 O   0  0  0  0  0  0  0  0  0  0  0  0
   -7.7424    2.0238    0.0000 C   0  0  0  0  0  0  0  0  0  0  0  0
   -6.9577    1.7688    0.0000 C   0  0  0  0  0  0  0  0  0  0  0  0
   -6.3446    2.3209    0.0000 C   0  0  1  0  0  0  0  0  0  0  0  0
   -6.4309    3.1413    0.0000 C   0  0  2  0  0  0  0  0  0  0  0  0
   -7.1454    3.5538    0.0000 O   0  0  0  0  0  0  0  0  0  0  0  0
   -5.6772    3.4769    0.0000 C   0  0  0  0  0  0  0  0  0  0  0  0
   -5.1252    2.8638    0.0000 C   0  0  2  0  0  0  0  0  0  0  0  0
   -4.3182    2.6923    0.0000 C   0  0  0  0  0  0  0  0  0  0  0  0
   -4.2320    1.8718    0.0000 C   0  0  0  0  0  0  0  0  0  0  0  0
   -4.9856    1.5362    0.0000 C   0  0  0  0  0  0  0  0  0  0  0  0
   -5.5377    2.1493    0.0000 C   0  0  2  0  0  0  0  0  0  0  0  0
   -3.5175    1.4593    0.0000 C   0  0  0  0  0  0  0  0  0  0  0  0
   -2.8030    1.8718    0.0000 C   0  0  0  0  0  0  0  0  0  0  0  0
   -2.0886    1.4593    0.0000 C   0  0  0  0  0  0  0  0  0  0  0  0
   -1.3741    1.8718    0.0000 C   0  0  0  0  0  0  0  0  0  0  0  0
   -0.6596    1.4593    0.0000 C   0  0  0  0  0  0  0  0  0  0  0  0
    0.0549    1.8718    0.0000 O   0  0  0  0  0  0  0  0  0  0  0  0
   -0.6596    0.6343    0.0000 O   0  0  0  0  0  0  0  0  0  0  0  0
  1  2  1  0  0  0  0
  2  3  3  0  0  0  0
  3  4  1  0  0  0  0
  4  5  1  0  0  0  0
  5  6  1  0  0  0  0
  5  7  1  0  0  0  0
  7  8  1  1  0  0  0
  7  9  1  0  0  0  0
  9 10  2  0  0  0  0
 11 10  1  1  0  0  0
 11 12  1  0  0  0  0
 12 13  1  6  0  0  0
 12 14  1  0  0  0  0
 15 14  1  6  0  0  0
 15 16  1  0  0  0  0
 16 17  1  0  0  0  0
 17 18  1  0  0  0  0
 19 18  1  6  0  0  0
 11 19  1  0  0  0  0
 15 19  1  0  0  0  0
 17 20  2  0  0  0  0
 20 21  1  0  0  0  0
 21 22  1  0  0  0  0
 22 23  1  0  0  0  0
 23 24  1  0  0  0  0
 24 25  1  0  0  0  0
 24 26  2  0  0  0  0
M  END
>  <ID>
1422

>  <PREFERRED_NAME>
iloprost

>  <CAS_RN>
78919-13-8

>  <SYNONYMS>
iloprost
ciloprost
endoprost
ilomedin
ventavis
ZK36374
ZK-36374
ZK 36374

>  <URL>
http://drugcentral.org/drugcard/1422/view

$$$$
