imidapril
  -INDIGO-06102311012D

 29 30  0  0  1  0  0  0  0  0999 V2000
    1.4289   -3.3000    0.0000 C   0  0  0  0  0  0  0  0  0  0  0  0
    1.4289   -4.1250    0.0000 C   0  0  0  0  0  0  0  0  0  0  0  0
    2.1434   -4.5375    0.0000 O   0  0  0  0  0  0  0  0  0  0  0  0
    2.1434   -5.3625    0.0000 C   0  0  0  0  0  0  0  0  0  0  0  0
    1.4289   -5.7750    0.0000 O   0  0  0  0  0  0  0  0  0  0  0  0
    2.8579   -5.7750    0.0000 C   0  0  2  0  0  0  0  0  0  0  0  0
    2.8579   -6.6000    0.0000 C   0  0  0  0  0  0  0  0  0  0  0  0
    2.1434   -7.0125    0.0000 C   0  0  0  0  0  0  0  0  0  0  0  0
    2.1434   -7.8375    0.0000 C   0  0  0  0  0  0  0  0  0  0  0  0
    2.8579   -8.2500    0.0000 C   0  0  0  0  0  0  0  0  0  0  0  0
    2.8579   -9.0750    0.0000 C   0  0  0  0  0  0  0  0  0  0  0  0
    2.1434   -9.4875    0.0000 C   0  0  0  0  0  0  0  0  0  0  0  0
    1.4289   -9.0750    0.0000 C   0  0  0  0  0  0  0  0  0  0  0  0
    1.4289   -8.2500    0.0000 C   0  0  0  0  0  0  0  0  0  0  0  0
    3.5724   -5.3625    0.0000 N   0  0  0  0  0  0  0  0  0  0  0  0
    3.5724   -4.5375    0.0000 C   0  0  1  0  0  0  0  0  0  0  0  0
    2.8579   -4.1250    0.0000 C   0  0  0  0  0  0  0  0  0  0  0  0
    4.2868   -4.1250    0.0000 C   0  0  0  0  0  0  0  0  0  0  0  0
    4.2868   -3.3000    0.0000 O   0  0  0  0  0  0  0  0  0  0  0  0
    5.0013   -4.5375    0.0000 N   0  0  0  0  0  0  0  0  0  0  0  0
    5.7550   -4.2019    0.0000 C   0  0  1  0  0  0  0  0  0  0  0  0
    6.3070   -4.8150    0.0000 C   0  0  0  0  0  0  0  0  0  0  0  0
    5.8945   -5.5295    0.0000 N   0  0  0  0  0  0  0  0  0  0  0  0
    6.2301   -6.2832    0.0000 C   0  0  0  0  0  0  0  0  0  0  0  0
    5.0875   -5.3580    0.0000 C   0  0  0  0  0  0  0  0  0  0  0  0
    4.4744   -5.9100    0.0000 O   0  0  0  0  0  0  0  0  0  0  0  0
    5.9265   -3.3950    0.0000 C   0  0  0  0  0  0  0  0  0  0  0  0
    6.7111   -3.1400    0.0000 O   0  0  0  0  0  0  0  0  0  0  0  0
    5.3134   -2.8429    0.0000 O   0  0  0  0  0  0  0  0  0  0  0  0
  1  2  1  0  0  0  0
  2  3  1  0  0  0  0
  3  4  1  0  0  0  0
  4  5  2  0  0  0  0
  4  6  1  0  0  0  0
  6  7  1  0  0  0  0
  7  8  1  0  0  0  0
  8  9  1  0  0  0  0
  9 10  4  0  0  0  0
 10 11  4  0  0  0  0
 11 12  4  0  0  0  0
 12 13  4  0  0  0  0
 13 14  4  0  0  0  0
  9 14  4  0  0  0  0
  6 15  1  1  0  0  0
 15 16  1  0  0  0  0
 16 17  1  1  0  0  0
 16 18  1  0  0  0  0
 18 19  2  0  0  0  0
 18 20  1  0  0  0  0
 20 21  1  0  0  0  0
 21 22  1  0  0  0  0
 22 23  1  0  0  0  0
 23 24  1  0  0  0  0
 23 25  1  0  0  0  0
 20 25  1  0  0  0  0
 25 26  2  0  0  0  0
 21 27  1  6  0  0  0
 27 28  1  0  0  0  0
 27 29  2  0  0  0  0
M  END
>  <ID>
1424

>  <PREFERRED_NAME>
imidapril

>  <CAS_RN>
89371-37-9

>  <SYNONYMS>
imidapril
imidapril hydrochloride
tanatril
TA-6366
imidapril HCl

>  <URL>
http://drugcentral.org/drugcard/1424/view

$$$$
