imidafenacin
  -INDIGO-06102311172D

 24 26  0  0  0  0  0  0  0  0999 V2000
   -2.0498   -0.4252    0.0000 C   0  0  0  0  0  0  0  0  0  0  0  0
   -2.0498   -1.2502    0.0000 C   0  0  0  0  0  0  0  0  0  0  0  0
   -1.3824   -1.7351    0.0000 N   0  0  0  0  0  0  0  0  0  0  0  0
   -1.6373   -2.5197    0.0000 C   0  0  0  0  0  0  0  0  0  0  0  0
   -2.4623   -2.5197    0.0000 C   0  0  0  0  0  0  0  0  0  0  0  0
   -2.7173   -1.7351    0.0000 N   0  0  0  0  0  0  0  0  0  0  0  0
   -3.5019   -1.4802    0.0000 C   0  0  0  0  0  0  0  0  0  0  0  0
   -4.1150   -2.0322    0.0000 C   0  0  0  0  0  0  0  0  0  0  0  0
   -4.8996   -1.7773    0.0000 C   0  0  0  0  0  0  0  0  0  0  0  0
   -4.6447   -0.9926    0.0000 C   0  0  0  0  0  0  0  0  0  0  0  0
   -5.1967   -0.3795    0.0000 N   0  0  0  0  0  0  0  0  0  0  0  0
   -3.8377   -0.8211    0.0000 O   0  0  0  0  0  0  0  0  0  0  0  0
   -5.6842   -1.5223    0.0000 C   0  0  0  0  0  0  0  0  0  0  0  0
   -6.2973   -2.0744    0.0000 C   0  0  0  0  0  0  0  0  0  0  0  0
   -7.0819   -1.8194    0.0000 C   0  0  0  0  0  0  0  0  0  0  0  0
   -7.2535   -1.0124    0.0000 C   0  0  0  0  0  0  0  0  0  0  0  0
   -6.6404   -0.4604    0.0000 C   0  0  0  0  0  0  0  0  0  0  0  0
   -5.8557   -0.7154    0.0000 C   0  0  0  0  0  0  0  0  0  0  0  0
   -5.1545   -2.5619    0.0000 C   0  0  0  0  0  0  0  0  0  0  0  0
   -4.6025   -3.1750    0.0000 C   0  0  0  0  0  0  0  0  0  0  0  0
   -4.8574   -3.9596    0.0000 C   0  0  0  0  0  0  0  0  0  0  0  0
   -5.6644   -4.1311    0.0000 C   0  0  0  0  0  0  0  0  0  0  0  0
   -6.2164   -3.5180    0.0000 C   0  0  0  0  0  0  0  0  0  0  0  0
   -5.9615   -2.7334    0.0000 C   0  0  0  0  0  0  0  0  0  0  0  0
  1  2  1  0  0  0  0
  2  3  4  0  0  0  0
  3  4  4  0  0  0  0
  4  5  4  0  0  0  0
  5  6  4  0  0  0  0
  2  6  4  0  0  0  0
  6  7  1  0  0  0  0
  7  8  1  0  0  0  0
  8  9  1  0  0  0  0
  9 10  1  0  0  0  0
 10 11  1  0  0  0  0
 10 12  2  0  0  0  0
  9 13  1  0  0  0  0
 13 14  4  0  0  0  0
 14 15  4  0  0  0  0
 15 16  4  0  0  0  0
 16 17  4  0  0  0  0
 17 18  4  0  0  0  0
 13 18  4  0  0  0  0
  9 19  1  0  0  0  0
 19 20  4  0  0  0  0
 20 21  4  0  0  0  0
 21 22  4  0  0  0  0
 22 23  4  0  0  0  0
 23 24  4  0  0  0  0
 19 24  4  0  0  0  0
M  END
>  <ID>
4902

>  <PREFERRED_NAME>
imidafenacin

>  <CAS_RN>
170105-16-5

>  <SYNONYMS>
imidafenacin
uritos
KRP-197
KRP 197

>  <URL>
http://drugcentral.org/drugcard/4902/view

$$$$
