imiquimod
  -INDIGO-06102311012D

 18 20  0  0  0  0  0  0  0  0999 V2000
    2.6762   -3.6799    0.0000 C   0  0  0  0  0  0  0  0  0  0  0  0
    2.4795   -2.8787    0.0000 C   0  0  0  0  0  0  0  0  0  0  0  0
    1.6873   -2.6484    0.0000 C   0  0  0  0  0  0  0  0  0  0  0  0
    3.0751   -2.3078    0.0000 C   0  0  0  0  0  0  0  0  0  0  0  0
    2.8784   -1.5066    0.0000 N   0  0  0  0  0  0  0  0  0  0  0  0
    2.1147   -1.1947    0.0000 C   0  0  0  0  0  0  0  0  0  0  0  0
    2.1752   -0.3719    0.0000 N   0  0  0  0  0  0  0  0  0  0  0  0
    2.9765   -0.1753    0.0000 C   0  0  0  0  0  0  0  0  0  0  0  0
    3.3664    0.5517    0.0000 C   0  0  0  0  0  0  0  0  0  0  0  0
    2.9318    1.2530    0.0000 N   0  0  0  0  0  0  0  0  0  0  0  0
    4.1910    0.5775    0.0000 N   0  0  0  0  0  0  0  0  0  0  0  0
    4.6256   -0.1238    0.0000 C   0  0  0  0  0  0  0  0  0  0  0  0
    5.4502   -0.0980    0.0000 C   0  0  0  0  0  0  0  0  0  0  0  0
    5.8849   -0.7992    0.0000 C   0  0  0  0  0  0  0  0  0  0  0  0
    5.4949   -1.5262    0.0000 C   0  0  0  0  0  0  0  0  0  0  0  0
    4.6703   -1.5520    0.0000 C   0  0  0  0  0  0  0  0  0  0  0  0
    4.2357   -0.8508    0.0000 C   0  0  0  0  0  0  0  0  0  0  0  0
    3.4111   -0.8765    0.0000 C   0  0  0  0  0  0  0  0  0  0  0  0
  1  2  1  0  0  0  0
  2  3  1  0  0  0  0
  2  4  1  0  0  0  0
  4  5  1  0  0  0  0
  5  6  4  0  0  0  0
  6  7  4  0  0  0  0
  7  8  4  0  0  0  0
  8  9  4  0  0  0  0
  9 10  1  0  0  0  0
  9 11  4  0  0  0  0
 11 12  4  0  0  0  0
 12 13  4  0  0  0  0
 13 14  4  0  0  0  0
 14 15  4  0  0  0  0
 15 16  4  0  0  0  0
 16 17  4  0  0  0  0
 12 17  4  0  0  0  0
 17 18  4  0  0  0  0
  5 18  4  0  0  0  0
  8 18  4  0  0  0  0
M  END
>  <ID>
1429

>  <PREFERRED_NAME>
imiquimod

>  <CAS_RN>
99011-02-6

>  <SYNONYMS>
imiquimod
aldara
beselna
zyclara

>  <URL>
http://drugcentral.org/drugcard/1429/view

$$$$
