indisetron
  -INDIGO-06102311012D

 23 26  0  0  1  0  0  0  0  0999 V2000
   -2.3815    4.5452    0.0000 C   0  0  0  0  0  0  0  0  0  0  0  0
   -2.1265    3.7606    0.0000 N   0  0  0  0  0  0  0  0  0  0  0  0
   -2.7539    3.2248    0.0000 C   0  0  0  0  0  0  0  0  0  0  0  0
   -2.8186    2.4023    0.0000 C   0  0  2  0  0  0  0  0  0  0  0  0
   -2.2828    1.7750    0.0000 C   0  0  0  0  0  0  0  0  0  0  0  0
   -1.4604    1.7103    0.0000 C   0  0  1  0  0  0  0  0  0  0  0  0
   -0.8330    2.2461    0.0000 C   0  0  0  0  0  0  0  0  0  0  0  0
   -0.7683    3.0685    0.0000 C   0  0  2  0  0  0  0  0  0  0  0  0
   -1.3041    3.6959    0.0000 C   0  0  0  0  0  0  0  0  0  0  0  0
   -1.8767    2.9917    0.0000 N   0  0  0  0  0  0  0  0  0  0  0  0
   -1.6218    3.7763    0.0000 C   0  0  0  0  0  0  0  0  0  0  0  0
   -1.2054    0.9256    0.0000 N   0  0  0  0  0  0  0  0  0  0  0  0
   -0.3984    0.7541    0.0000 C   0  0  0  0  0  0  0  0  0  0  0  0
    0.1536    1.3672    0.0000 O   0  0  0  0  0  0  0  0  0  0  0  0
   -0.1435   -0.0305    0.0000 C   0  0  0  0  0  0  0  0  0  0  0  0
   -0.6284   -0.6979    0.0000 N   0  0  0  0  0  0  0  0  0  0  0  0
   -0.1435   -1.3654    0.0000 N   0  0  0  0  0  0  0  0  0  0  0  0
    0.6411   -1.1104    0.0000 C   0  0  0  0  0  0  0  0  0  0  0  0
    0.6411   -0.2854    0.0000 C   0  0  0  0  0  0  0  0  0  0  0  0
    1.3556    0.1271    0.0000 C   0  0  0  0  0  0  0  0  0  0  0  0
    2.0701   -0.2854    0.0000 C   0  0  0  0  0  0  0  0  0  0  0  0
    2.0701   -1.1104    0.0000 C   0  0  0  0  0  0  0  0  0  0  0  0
    1.3556   -1.5229    0.0000 C   0  0  0  0  0  0  0  0  0  0  0  0
  1  2  1  0  0  0  0
  2  3  1  0  0  0  0
  3  4  1  0  0  0  0
  4  5  1  0  0  0  0
  5  6  1  0  0  0  0
  6  7  1  0  0  0  0
  7  8  1  0  0  0  0
  8  9  1  0  0  0  0
  2  9  1  0  0  0  0
  8 10  1  6  0  0  0
  4 10  1  6  0  0  0
 10 11  1  0  0  0  0
  6 12  1  1  0  0  0
 12 13  1  0  0  0  0
 13 14  2  0  0  0  0
 13 15  1  0  0  0  0
 15 16  4  0  0  0  0
 16 17  4  0  0  0  0
 17 18  4  0  0  0  0
 18 19  4  0  0  0  0
 15 19  4  0  0  0  0
 19 20  4  0  0  0  0
 20 21  4  0  0  0  0
 21 22  4  0  0  0  0
 22 23  4  0  0  0  0
 18 23  4  0  0  0  0
M  STY  1   1 DAT
M  SLB  1   1   1
M  SAL   1  1  17
M  SDT   1 MRV_IMPLICIT_H
M  SDD   1     0.0000    0.0000    DA    ALL  1       1
M  SED   1 IMPL_H1
M  END
>  <ID>
1438

>  <PREFERRED_NAME>
indisetron

>  <CAS_RN>
141549-75-9

>  <SYNONYMS>
indisetron
indisetron hydrochloride
indisetron HCl
sinseron

>  <URL>
http://drugcentral.org/drugcard/1438/view

$$$$
