indinavir
  -INDIGO-06102311012D

 45 49  0  0  1  0  0  0  0  0999 V2000
   -5.5670   -4.5636    0.0000 C   0  0  0  0  0  0  0  0  0  0  0  0
   -5.5670   -3.7386    0.0000 C   0  0  0  0  0  0  0  0  0  0  0  0
   -6.3920   -3.7386    0.0000 C   0  0  0  0  0  0  0  0  0  0  0  0
   -4.7420   -3.7386    0.0000 C   0  0  0  0  0  0  0  0  0  0  0  0
   -5.5670   -2.9136    0.0000 N   0  0  0  0  0  0  0  0  0  0  0  0
   -6.2815   -2.5011    0.0000 C   0  0  0  0  0  0  0  0  0  0  0  0
   -6.9960   -2.9136    0.0000 O   0  0  0  0  0  0  0  0  0  0  0  0
   -6.2815   -1.6761    0.0000 C   0  0  2  0  0  0  0  0  0  0  0  0
   -6.9960   -1.2636    0.0000 C   0  0  0  0  0  0  0  0  0  0  0  0
   -6.9960   -0.4386    0.0000 N   0  0  0  0  0  0  0  0  0  0  0  0
   -7.7104   -0.0261    0.0000 C   0  0  0  0  0  0  0  0  0  0  0  0
   -7.7104    0.7989    0.0000 C   0  0  0  0  0  0  0  0  0  0  0  0
   -8.4249    1.2114    0.0000 C   0  0  0  0  0  0  0  0  0  0  0  0
   -8.4249    2.0364    0.0000 N   0  0  0  0  0  0  0  0  0  0  0  0
   -7.7104    2.4489    0.0000 C   0  0  0  0  0  0  0  0  0  0  0  0
   -6.9960    2.0364    0.0000 C   0  0  0  0  0  0  0  0  0  0  0  0
   -6.9960    1.2114    0.0000 C   0  0  0  0  0  0  0  0  0  0  0  0
   -6.2815   -0.0261    0.0000 C   0  0  0  0  0  0  0  0  0  0  0  0
   -5.5670   -0.4386    0.0000 C   0  0  0  0  0  0  0  0  0  0  0  0
   -5.5670   -1.2636    0.0000 N   0  0  0  0  0  0  0  0  0  0  0  0
   -4.8525   -1.6761    0.0000 C   0  0  0  0  0  0  0  0  0  0  0  0
   -4.1381   -1.2636    0.0000 C   0  0  1  0  0  0  0  0  0  0  0  0
   -4.1381   -0.4386    0.0000 O   0  0  0  0  0  0  0  0  0  0  0  0
   -3.4236   -1.6761    0.0000 C   0  0  0  0  0  0  0  0  0  0  0  0
   -2.7091   -1.2636    0.0000 C   0  0  1  0  0  0  0  0  0  0  0  0
   -2.7091   -0.4386    0.0000 C   0  0  0  0  0  0  0  0  0  0  0  0
   -1.9947   -0.0261    0.0000 C   0  0  0  0  0  0  0  0  0  0  0  0
   -1.9947    0.7989    0.0000 C   0  0  0  0  0  0  0  0  0  0  0  0
   -1.2802    1.2114    0.0000 C   0  0  0  0  0  0  0  0  0  0  0  0
   -0.5657    0.7989    0.0000 C   0  0  0  0  0  0  0  0  0  0  0  0
   -0.5657   -0.0261    0.0000 C   0  0  0  0  0  0  0  0  0  0  0  0
   -1.2802   -0.4386    0.0000 C   0  0  0  0  0  0  0  0  0  0  0  0
   -1.9947   -1.6761    0.0000 C   0  0  0  0  0  0  0  0  0  0  0  0
   -1.9947   -2.5011    0.0000 O   0  0  0  0  0  0  0  0  0  0  0  0
   -1.2802   -1.2636    0.0000 N   0  0  0  0  0  0  0  0  0  0  0  0
   -0.5657   -1.6761    0.0000 C   0  0  2  0  0  0  0  0  0  0  0  0
   -0.4795   -2.4966    0.0000 C   0  0  2  0  0  0  0  0  0  0  0  0
   -1.0926   -3.0487    0.0000 O   0  0  0  0  0  0  0  0  0  0  0  0
    0.3275   -2.6681    0.0000 C   0  0  0  0  0  0  0  0  0  0  0  0
    0.7400   -1.9537    0.0000 C   0  0  0  0  0  0  0  0  0  0  0  0
    0.1880   -1.3406    0.0000 C   0  0  0  0  0  0  0  0  0  0  0  0
    0.4429   -0.5560    0.0000 C   0  0  0  0  0  0  0  0  0  0  0  0
    1.2499   -0.3844    0.0000 C   0  0  0  0  0  0  0  0  0  0  0  0
    1.8019   -0.9975    0.0000 C   0  0  0  0  0  0  0  0  0  0  0  0
    1.5470   -1.7821    0.0000 C   0  0  0  0  0  0  0  0  0  0  0  0
  1  2  1  0  0  0  0
  2  3  1  0  0  0  0
  2  4  1  0  0  0  0
  2  5  1  0  0  0  0
  5  6  1  0  0  0  0
  6  7  2  0  0  0  0
  8  6  1  6  0  0  0
  8  9  1  0  0  0  0
  9 10  1  0  0  0  0
 10 11  1  0  0  0  0
 11 12  1  0  0  0  0
 12 13  4  0  0  0  0
 13 14  4  0  0  0  0
 14 15  4  0  0  0  0
 15 16  4  0  0  0  0
 16 17  4  0  0  0  0
 12 17  4  0  0  0  0
 10 18  1  0  0  0  0
 18 19  1  0  0  0  0
 19 20  1  0  0  0  0
  8 20  1  0  0  0  0
 20 21  1  0  0  0  0
 21 22  1  0  0  0  0
 22 23  1  1  0  0  0
 22 24  1  0  0  0  0
 25 24  1  1  0  0  0
 25 26  1  0  0  0  0
 26 27  1  0  0  0  0
 27 28  4  0  0  0  0
 28 29  4  0  0  0  0
 29 30  4  0  0  0  0
 30 31  4  0  0  0  0
 31 32  4  0  0  0  0
 27 32  4  0  0  0  0
 25 33  1  0  0  0  0
 33 34  2  0  0  0  0
 33 35  1  0  0  0  0
 36 35  1  1  0  0  0
 36 37  1  0  0  0  0
 37 38  1  1  0  0  0
 37 39  1  0  0  0  0
 39 40  1  0  0  0  0
 40 41  4  0  0  0  0
 36 41  1  0  0  0  0
 41 42  4  0  0  0  0
 42 43  4  0  0  0  0
 43 44  4  0  0  0  0
 44 45  4  0  0  0  0
 40 45  4  0  0  0  0
M  END
>  <ID>
1437

>  <PREFERRED_NAME>
indinavir

>  <CAS_RN>
150378-17-9

>  <SYNONYMS>
indinavir
indinavir sulphate
crixivan
indinavir sulfate

>  <URL>
http://drugcentral.org/drugcard/1437/view

$$$$
