ingenol mebutate
  -INDIGO-06102311112D

 31 34  0  0  1  0  0  0  0  0999 V2000
   -2.4014    1.3779    0.0000 C   0  0  0  0  0  0  0  0  0  0  0  0
   -3.1322    0.9951    0.0000 C   0  0  0  0  0  0  0  0  0  0  0  0
   -3.1661    0.1708    0.0000 C   0  0  0  0  0  0  0  0  0  0  0  0
   -3.8970   -0.2120    0.0000 C   0  0  0  0  0  0  0  0  0  0  0  0
   -2.4692   -0.2707    0.0000 C   0  0  0  0  0  0  0  0  0  0  0  0
   -2.5032   -1.0951    0.0000 O   0  0  0  0  0  0  0  0  0  0  0  0
   -1.7384    0.1120    0.0000 O   0  0  0  0  0  0  0  0  0  0  0  0
   -1.0415   -0.3295    0.0000 C   0  0  1  0  0  0  0  0  0  0  0  0
   -1.0008   -1.1576    0.0000 C   0  0  0  0  0  0  0  0  0  0  0  0
   -1.6332   -1.6874    0.0000 C   0  0  0  0  0  0  0  0  0  0  0  0
   -0.1929   -1.3426    0.0000 C   0  0  0  0  0  0  0  0  0  0  0  0
    0.3261   -0.6574    0.0000 C   0  0  1  0  0  0  0  0  0  0  0  0
    0.7898   -1.4107    0.0000 C   0  0  2  0  0  0  0  0  0  0  0  0
    0.2915   -2.0682    0.0000 C   0  0  0  0  0  0  0  0  0  0  0  0
    1.6097   -1.6445    0.0000 C   0  0  0  0  0  0  0  0  0  0  0  0
    2.2721   -1.1201    0.0000 C   0  0  2  0  0  0  0  0  0  0  0  0
    2.2431   -0.2956    0.0000 C   0  0  2  0  0  0  0  0  0  0  0  0
    1.5837    0.2513    0.0000 C   0  0  2  0  0  0  0  0  0  0  0  0
    1.2746    1.0377    0.0000 C   0  0  0  0  0  0  0  0  0  0  0  0
    0.4853    1.3255    0.0000 C   0  0  0  0  0  0  0  0  0  0  0  0
    0.3879    2.1447    0.0000 C   0  0  0  0  0  0  0  0  0  0  0  0
   -0.3702    2.4700    0.0000 O   0  0  0  0  0  0  0  0  0  0  0  0
   -0.2167    0.8594    0.0000 C   0  0  1  0  0  0  0  0  0  0  0  0
   -0.9315    1.2713    0.0000 O   0  0  0  0  0  0  0  0  0  0  0  0
   -0.2695   -0.0102    0.0000 C   0  0  2  0  0  0  0  0  0  0  0  0
   -0.9411    0.4689    0.0000 O   0  0  0  0  0  0  0  0  0  0  0  0
    0.9424   -0.2150    0.0000 C   0  0  0  0  0  0  0  0  0  0  0  0
    1.4256   -0.8837    0.0000 O   0  0  0  0  0  0  0  0  0  0  0  0
    2.9716   -0.6827    0.0000 C   0  0  0  0  0  0  0  0  0  0  0  0
    3.6304   -0.1861    0.0000 C   0  0  0  0  0  0  0  0  0  0  0  0
    3.6636   -1.1319    0.0000 C   0  0  0  0  0  0  0  0  0  0  0  0
  1  2  1  0  0  0  0
  2  3  2  0  0  0  0
  3  4  1  0  0  0  0
  3  5  1  0  0  0  0
  5  6  2  0  0  0  0
  5  7  1  0  0  0  0
  8  7  1  6  0  0  0
  8  9  1  0  0  0  0
  9 10  1  0  0  0  0
  9 11  2  0  0  0  0
 11 12  1  0  0  0  0
 12 13  1  0  0  0  0
 13 14  1  1  0  0  0
 13 15  1  0  0  0  0
 16 15  1  6  0  0  0
 17 16  1  6  0  0  0
 17 18  1  0  0  0  0
 18 19  1  0  0  0  0
 19 20  2  0  0  0  0
 20 21  1  0  0  0  0
 21 22  1  0  0  0  0
 20 23  1  0  0  0  0
 23 24  1  6  0  0  0
 23 25  1  0  0  0  0
  8 25  1  0  0  0  0
 12 25  1  0  0  0  0
 25 26  1  6  0  0  0
 18 27  1  1  0  0  0
 12 27  1  1  0  0  0
 27 28  2  0  0  0  0
 17 29  1  0  0  0  0
 16 29  1  0  0  0  0
 29 30  1  0  0  0  0
 29 31  1  0  0  0  0
M  END
>  <ID>
4226

>  <PREFERRED_NAME>
ingenol mebutate

>  <CAS_RN>
75567-37-2

>  <SYNONYMS>
ingenol mebutate
picato
PEP005
Ingenol 3-angelate
3-Angeloylingenol
3-Ingenyl angelate

>  <URL>
http://drugcentral.org/drugcard/4226/view

$$$$
