iodoform
  -INDIGO-06102311132D

  4  3  0  0  0  0  0  0  0  0999 V2000
    1.2375    0.7145    0.0000 I   0  0  0  0  0  0  0  0  0  0  0  0
    0.8250    0.0000    0.0000 C   0  0  0  0  0  0  0  0  0  0  0  0
    1.2375   -0.7145    0.0000 I   0  0  0  0  0  0  0  0  0  0  0  0
    0.0000    0.0000    0.0000 I   0  0  0  0  0  0  0  0  0  0  0  0
  1  2  1  0  0  0  0
  2  3  1  0  0  0  0
  2  4  1  0  0  0  0
M  END
>  <ID>
4579

>  <PREFERRED_NAME>
iodoform

>  <CAS_RN>
75-47-8

>  <SYNONYMS>
iodoform
carbon triiodide
triiodomethane

>  <URL>
http://drugcentral.org/drugcard/4579/view

$$$$
