irinotecan
  -INDIGO-06102311012D

 43 49  0  0  1  0  0  0  0  0999 V2000
    0.7566    2.5948    0.0000 C   0  0  0  0  0  0  0  0  0  0  0  0
    1.5636    2.4233    0.0000 C   0  0  0  0  0  0  0  0  0  0  0  0
    1.8185    1.6387    0.0000 C   0  0  0  0  0  0  0  0  0  0  0  0
    2.6255    1.4672    0.0000 C   0  0  0  0  0  0  0  0  0  0  0  0
    3.2929    1.9521    0.0000 C   0  0  0  0  0  0  0  0  0  0  0  0
    3.9604    1.4672    0.0000 N   0  0  0  0  0  0  0  0  0  0  0  0
    3.7054    0.6825    0.0000 C   0  0  0  0  0  0  0  0  0  0  0  0
    4.2575    0.0694    0.0000 C   0  0  0  0  0  0  0  0  0  0  0  0
    5.0645    0.2410    0.0000 C   0  0  0  0  0  0  0  0  0  0  0  0
    5.3194    1.0256    0.0000 C   0  0  0  0  0  0  0  0  0  0  0  0
    6.1264    1.1971    0.0000 C   0  0  0  0  0  0  0  0  0  0  0  0
    6.6784    0.5840    0.0000 O   0  0  0  0  0  0  0  0  0  0  0  0
    6.4235   -0.2006    0.0000 C   0  0  0  0  0  0  0  0  0  0  0  0
    6.9755   -0.8137    0.0000 O   0  0  0  0  0  0  0  0  0  0  0  0
    5.6165   -0.3721    0.0000 C   0  0  1  0  0  0  0  0  0  0  0  0
    5.7597   -1.1846    0.0000 O   0  0  0  0  0  0  0  0  0  0  0  0
    5.0230   -0.9452    0.0000 C   0  0  0  0  0  0  0  0  0  0  0  0
    4.2300   -0.7178    0.0000 C   0  0  0  0  0  0  0  0  0  0  0  0
    4.7674    1.6387    0.0000 C   0  0  0  0  0  0  0  0  0  0  0  0
    5.0223    2.4233    0.0000 O   0  0  0  0  0  0  0  0  0  0  0  0
    2.8804    0.6825    0.0000 C   0  0  0  0  0  0  0  0  0  0  0  0
    2.3284    0.0694    0.0000 N   0  0  0  0  0  0  0  0  0  0  0  0
    1.5214    0.2410    0.0000 C   0  0  0  0  0  0  0  0  0  0  0  0
    0.9694   -0.3721    0.0000 C   0  0  0  0  0  0  0  0  0  0  0  0
    0.1624   -0.2006    0.0000 C   0  0  0  0  0  0  0  0  0  0  0  0
   -0.0925    0.5840    0.0000 C   0  0  0  0  0  0  0  0  0  0  0  0
   -0.8995    0.7556    0.0000 O   0  0  0  0  0  0  0  0  0  0  0  0
   -1.4515    0.1425    0.0000 C   0  0  0  0  0  0  0  0  0  0  0  0
   -1.1966   -0.6422    0.0000 O   0  0  0  0  0  0  0  0  0  0  0  0
   -2.2585    0.3140    0.0000 N   0  0  0  0  0  0  0  0  0  0  0  0
   -2.8105   -0.2991    0.0000 C   0  0  0  0  0  0  0  0  0  0  0  0
   -3.6175   -0.1276    0.0000 C   0  0  0  0  0  0  0  0  0  0  0  0
   -3.8724    0.6570    0.0000 C   0  0  0  0  0  0  0  0  0  0  0  0
   -3.3204    1.2701    0.0000 C   0  0  0  0  0  0  0  0  0  0  0  0
   -2.5134    1.0986    0.0000 C   0  0  0  0  0  0  0  0  0  0  0  0
   -4.6794    0.8286    0.0000 N   0  0  0  0  0  0  0  0  0  0  0  0
   -5.2314    0.2155    0.0000 C   0  0  0  0  0  0  0  0  0  0  0  0
   -6.0384    0.3870    0.0000 C   0  0  0  0  0  0  0  0  0  0  0  0
   -6.2933    1.1716    0.0000 C   0  0  0  0  0  0  0  0  0  0  0  0
   -5.7413    1.7847    0.0000 C   0  0  0  0  0  0  0  0  0  0  0  0
   -4.9343    1.6132    0.0000 C   0  0  0  0  0  0  0  0  0  0  0  0
    0.4595    1.1971    0.0000 C   0  0  0  0  0  0  0  0  0  0  0  0
    1.2665    1.0256    0.0000 C   0  0  0  0  0  0  0  0  0  0  0  0
  1  2  1  0  0  0  0
  2  3  1  0  0  0  0
  3  4  4  0  0  0  0
  4  5  1  0  0  0  0
  5  6  1  0  0  0  0
  6  7  1  0  0  0  0
  7  8  2  0  0  0  0
  8  9  1  0  0  0  0
  9 10  2  0  0  0  0
 10 11  1  0  0  0  0
 11 12  1  0  0  0  0
 12 13  1  0  0  0  0
 13 14  2  0  0  0  0
 13 15  1  0  0  0  0
  9 15  1  0  0  0  0
 15 16  1  1  0  0  0
 15 17  1  6  0  0  0
 17 18  1  0  0  0  0
 10 19  1  0  0  0  0
  6 19  1  0  0  0  0
 19 20  2  0  0  0  0
  7 21  1  0  0  0  0
  4 21  4  0  0  0  0
 21 22  4  0  0  0  0
 22 23  4  0  0  0  0
 23 24  4  0  0  0  0
 24 25  4  0  0  0  0
 25 26  4  0  0  0  0
 26 27  1  0  0  0  0
 27 28  1  0  0  0  0
 28 29  2  0  0  0  0
 28 30  1  0  0  0  0
 30 31  1  0  0  0  0
 31 32  1  0  0  0  0
 32 33  1  0  0  0  0
 33 34  1  0  0  0  0
 34 35  1  0  0  0  0
 30 35  1  0  0  0  0
 33 36  1  0  0  0  0
 36 37  1  0  0  0  0
 37 38  1  0  0  0  0
 38 39  1  0  0  0  0
 39 40  1  0  0  0  0
 40 41  1  0  0  0  0
 36 41  1  0  0  0  0
 26 42  4  0  0  0  0
 42 43  4  0  0  0  0
  3 43  4  0  0  0  0
 23 43  4  0  0  0  0
M  END
>  <ID>
1482

>  <PREFERRED_NAME>
irinotecan

>  <CAS_RN>
97682-44-5

>  <SYNONYMS>
irinotecan
irinotecan liposome injection
onivyde
irinotecan liposome
irinotecan hydrochloride
irinotecan hydrochloride hydrate
irinotecan hydrochloride trihydrate
irinotecan HCl

>  <URL>
http://drugcentral.org/drugcard/1482/view

$$$$
