irofulven
  -INDIGO-06102311012D

 18 20  0  0  1  0  0  0  0  0999 V2000
   -0.1184   -0.2999    0.0000 C   0  0  0  0  0  0  0  0  0  0  0  0
    0.6781   -0.5150    0.0000 C   0  0  0  0  0  0  0  0  0  0  0  0
    1.3202    0.0030    0.0000 C   0  0  0  0  0  0  0  0  0  0  0  0
    1.2787    0.8269    0.0000 C   0  0  0  0  0  0  0  0  0  0  0  0
    0.5444    1.2029    0.0000 O   0  0  0  0  0  0  0  0  0  0  0  0
    2.0113   -0.4477    0.0000 C   0  0  0  0  0  0  0  0  0  0  0  0
    2.8086   -0.2358    0.0000 C   0  0  0  0  0  0  0  0  0  0  0  0
    3.0237    0.5607    0.0000 C   0  0  0  0  0  0  0  0  0  0  0  0
    3.3908   -0.8203    0.0000 C   0  0  0  0  0  0  0  0  0  0  0  0
    3.9753   -0.2381    0.0000 C   0  0  0  0  0  0  0  0  0  0  0  0
    4.1872   -1.0354    0.0000 C   0  0  0  0  0  0  0  0  0  0  0  0
    3.1757   -1.6168    0.0000 C   0  0  1  0  0  0  0  0  0  0  0  0
    3.9974   -1.6903    0.0000 C   0  0  0  0  0  0  0  0  0  0  0  0
    3.2459   -2.4388    0.0000 O   0  0  0  0  0  0  0  0  0  0  0  0
    2.3784   -1.8287    0.0000 C   0  0  0  0  0  0  0  0  0  0  0  0
    2.1633   -2.6252    0.0000 O   0  0  0  0  0  0  0  0  0  0  0  0
    1.7962   -1.2442    0.0000 C   0  0  0  0  0  0  0  0  0  0  0  0
    0.9722   -1.2858    0.0000 C   0  0  0  0  0  0  0  0  0  0  0  0
  1  2  1  0  0  0  0
  2  3  2  0  0  0  0
  3  4  1  0  0  0  0
  4  5  1  0  0  0  0
  3  6  1  0  0  0  0
  6  7  2  0  0  0  0
  7  8  1  0  0  0  0
  7  9  1  0  0  0  0
  9 10  1  0  0  0  0
 10 11  1  0  0  0  0
  9 11  1  0  0  0  0
  9 12  1  0  0  0  0
 12 13  1  6  0  0  0
 12 14  1  1  0  0  0
 12 15  1  0  0  0  0
 15 16  2  0  0  0  0
 15 17  1  0  0  0  0
  6 17  1  0  0  0  0
 17 18  2  0  0  0  0
  2 18  1  0  0  0  0
M  END
>  <ID>
1483

>  <PREFERRED_NAME>
irofulven

>  <CAS_RN>
158440-71-2

>  <SYNONYMS>
irofulven
6-hydroxymethylacylfulvene
MGI-114
(-)-Irofulven

>  <URL>
http://drugcentral.org/drugcard/1483/view

$$$$
