isavuconazonium
  -INDIGO-06102311182D

 51 55  0  0  1  0  0  0  0  0999 V2000
   -7.3042    1.8546    0.0000 C   0  0  0  0  0  0  0  0  0  0  0  0
   -6.5897    1.4421    0.0000 N   0  0  0  0  0  0  0  0  0  0  0  0
   -5.8752    1.8546    0.0000 C   0  0  0  0  0  0  0  0  0  0  0  0
   -5.1607    1.4421    0.0000 C   0  0  0  0  0  0  0  0  0  0  0  0
   -5.1607    0.6171    0.0000 O   0  0  0  0  0  0  0  0  0  0  0  0
   -4.4463    1.8546    0.0000 O   0  0  0  0  0  0  0  0  0  0  0  0
   -3.7318    1.4421    0.0000 C   0  0  0  0  0  0  0  0  0  0  0  0
   -3.0173    1.8546    0.0000 C   0  0  0  0  0  0  0  0  0  0  0  0
   -3.0173    2.6796    0.0000 C   0  0  0  0  0  0  0  0  0  0  0  0
   -2.3029    3.0921    0.0000 C   0  0  0  0  0  0  0  0  0  0  0  0
   -1.5884    2.6796    0.0000 C   0  0  0  0  0  0  0  0  0  0  0  0
   -1.5884    1.8546    0.0000 N   0  0  0  0  0  0  0  0  0  0  0  0
   -2.3029    1.4421    0.0000 C   0  0  0  0  0  0  0  0  0  0  0  0
   -2.3029    0.6171    0.0000 N   0  0  0  0  0  0  0  0  0  0  0  0
   -3.0173    0.2046    0.0000 C   0  0  0  0  0  0  0  0  0  0  0  0
   -1.5884    0.2046    0.0000 C   0  0  0  0  0  0  0  0  0  0  0  0
   -0.8739    0.6171    0.0000 O   0  0  0  0  0  0  0  0  0  0  0  0
   -1.5884   -0.6204    0.0000 O   0  0  0  0  0  0  0  0  0  0  0  0
   -0.8739   -1.0329    0.0000 C   0  0  0  0  0  0  0  0  0  0  0  0
   -0.1595   -0.6204    0.0000 C   0  0  0  0  0  0  0  0  0  0  0  0
   -0.8739   -1.8579    0.0000 N   0  0  0  0  0  0  0  0  0  0  0  0
   -0.2065   -2.3429    0.0000 C   0  0  0  0  0  0  0  0  0  0  0  0
   -0.4614   -3.1275    0.0000 N   0  0  0  0  0  0  0  0  0  0  0  0
    0.0235   -3.7949    0.0000 C   0  0  0  0  0  0  0  0  0  0  0  0
   -0.3121   -4.5486    0.0000 C   0  0  1  0  0  0  0  0  0  0  0  0
   -1.0657   -4.2131    0.0000 O   0  0  0  0  0  0  0  0  0  0  0  0
   -0.6476   -5.3023    0.0000 C   0  0  1  0  0  0  0  0  0  0  0  0
   -0.1627   -5.9697    0.0000 C   0  0  0  0  0  0  0  0  0  0  0  0
   -1.4681   -5.3885    0.0000 C   0  0  0  0  0  0  0  0  0  0  0  0
   -1.8806   -6.1030    0.0000 N   0  0  0  0  0  0  0  0  0  0  0  0
   -2.6876   -5.9315    0.0000 C   0  0  0  0  0  0  0  0  0  0  0  0
   -2.7738   -5.1110    0.0000 C   0  0  0  0  0  0  0  0  0  0  0  0
   -2.0201   -4.7754    0.0000 S   0  0  0  0  0  0  0  0  0  0  0  0
   -3.3007   -6.4835    0.0000 C   0  0  0  0  0  0  0  0  0  0  0  0
   -3.1291   -7.2905    0.0000 C   0  0  0  0  0  0  0  0  0  0  0  0
   -3.7422   -7.8425    0.0000 C   0  0  0  0  0  0  0  0  0  0  0  0
   -4.5269   -7.5876    0.0000 C   0  0  0  0  0  0  0  0  0  0  0  0
   -4.6984   -6.7806    0.0000 C   0  0  0  0  0  0  0  0  0  0  0  0
   -4.0853   -6.2286    0.0000 C   0  0  0  0  0  0  0  0  0  0  0  0
   -5.1399   -8.1396    0.0000 C   0  0  0  0  0  0  0  0  0  0  0  0
   -5.7530   -8.6916    0.0000 N   0  0  0  0  0  0  0  0  0  0  0  0
    0.4416   -4.8842    0.0000 C   0  0  0  0  0  0  0  0  0  0  0  0
    1.1091   -4.3992    0.0000 C   0  0  0  0  0  0  0  0  0  0  0  0
    1.0228   -3.5788    0.0000 F   0  0  0  0  0  0  0  0  0  0  0  0
    1.8627   -4.7348    0.0000 C   0  0  0  0  0  0  0  0  0  0  0  0
    1.9490   -5.5553    0.0000 C   0  0  0  0  0  0  0  0  0  0  0  0
    1.2815   -6.0402    0.0000 C   0  0  0  0  0  0  0  0  0  0  0  0
    1.3678   -6.8607    0.0000 F   0  0  0  0  0  0  0  0  0  0  0  0
    0.5279   -5.7046    0.0000 C   0  0  0  0  0  0  0  0  0  0  0  0
   -1.2864   -3.1275    0.0000 N   0  0  0  0  0  0  0  0  0  0  0  0
   -1.5414   -2.3429    0.0000 C   0  0  0  0  0  0  0  0  0  0  0  0
  1  2  1  0  0  0  0
  2  3  1  0  0  0  0
  3  4  1  0  0  0  0
  4  5  2  0  0  0  0
  4  6  1  0  0  0  0
  6  7  1  0  0  0  0
  7  8  1  0  0  0  0
  8  9  4  0  0  0  0
  9 10  4  0  0  0  0
 10 11  4  0  0  0  0
 11 12  4  0  0  0  0
 12 13  4  0  0  0  0
  8 13  4  0  0  0  0
 13 14  1  0  0  0  0
 14 15  1  0  0  0  0
 14 16  1  0  0  0  0
 16 17  2  0  0  0  0
 16 18  1  0  0  0  0
 18 19  1  0  0  0  0
 19 20  1  0  0  0  0
 19 21  1  0  0  0  0
 21 22  4  0  0  0  0
 22 23  4  0  0  0  0
 23 24  1  0  0  0  0
 25 24  1  6  0  0  0
 25 26  1  1  0  0  0
 25 27  1  0  0  0  0
 27 28  1  1  0  0  0
 27 29  1  0  0  0  0
 29 30  4  0  0  0  0
 30 31  4  0  0  0  0
 31 32  4  0  0  0  0
 32 33  4  0  0  0  0
 29 33  4  0  0  0  0
 31 34  1  0  0  0  0
 34 35  4  0  0  0  0
 35 36  4  0  0  0  0
 36 37  4  0  0  0  0
 37 38  4  0  0  0  0
 38 39  4  0  0  0  0
 34 39  4  0  0  0  0
 37 40  1  0  0  0  0
 40 41  3  0  0  0  0
 25 42  1  0  0  0  0
 42 43  4  0  0  0  0
 43 44  1  0  0  0  0
 43 45  4  0  0  0  0
 45 46  4  0  0  0  0
 46 47  4  0  0  0  0
 47 48  1  0  0  0  0
 47 49  4  0  0  0  0
 42 49  4  0  0  0  0
 23 50  4  0  0  0  0
 50 51  4  0  0  0  0
 21 51  4  0  0  0  0
M  CHG  1  21   1
M  END
>  <ID>
4947

>  <PREFERRED_NAME>
isavuconazonium

>  <CAS_RN>
742049-41-8

>  <SYNONYMS>
isavuconazonium
isavuconazonium sulfate
isavuconazonium chloride
cresemba
BAL8557-000
BAL8557-002
RO0098557

>  <URL>
http://drugcentral.org/drugcard/4947/view

$$$$
