ivabradine
  -INDIGO-06102311092D

 34 37  0  0  1  0  0  0  0  0999 V2000
   -2.8117   -5.6861    0.0000 C   0  0  0  0  0  0  0  0  0  0  0  0
   -2.5982   -4.8892    0.0000 O   0  0  0  0  0  0  0  0  0  0  0  0
   -1.8013   -4.6756    0.0000 C   0  0  0  0  0  0  0  0  0  0  0  0
   -1.5878   -3.8787    0.0000 C   0  0  0  0  0  0  0  0  0  0  0  0
   -2.1712   -3.2954    0.0000 O   0  0  0  0  0  0  0  0  0  0  0  0
   -1.9576   -2.4985    0.0000 C   0  0  0  0  0  0  0  0  0  0  0  0
   -0.7909   -3.6652    0.0000 C   0  0  0  0  0  0  0  0  0  0  0  0
   -0.2076   -4.2486    0.0000 C   0  0  0  0  0  0  0  0  0  0  0  0
    0.5893   -4.4621    0.0000 C   0  0  1  0  0  0  0  0  0  0  0  0
    1.3038   -4.0496    0.0000 C   0  0  0  0  0  0  0  0  0  0  0  0
    2.0183   -4.4621    0.0000 N   0  0  0  0  0  0  0  0  0  0  0  0
    2.0183   -5.2871    0.0000 C   0  0  0  0  0  0  0  0  0  0  0  0
    2.7327   -4.0496    0.0000 C   0  0  0  0  0  0  0  0  0  0  0  0
    3.4472   -4.4621    0.0000 C   0  0  0  0  0  0  0  0  0  0  0  0
    4.1617   -4.0496    0.0000 C   0  0  0  0  0  0  0  0  0  0  0  0
    4.8762   -4.4621    0.0000 N   0  0  0  0  0  0  0  0  0  0  0  0
    5.5578   -3.9974    0.0000 C   0  0  0  0  0  0  0  0  0  0  0  0
    6.3462   -4.2405    0.0000 C   0  0  0  0  0  0  0  0  0  0  0  0
    6.6476   -5.0085    0.0000 C   0  0  0  0  0  0  0  0  0  0  0  0
    7.4726   -5.0085    0.0000 C   0  0  0  0  0  0  0  0  0  0  0  0
    7.8851   -5.7230    0.0000 C   0  0  0  0  0  0  0  0  0  0  0  0
    8.7101   -5.7230    0.0000 O   0  0  0  0  0  0  0  0  0  0  0  0
    9.1226   -5.0085    0.0000 C   0  0  0  0  0  0  0  0  0  0  0  0
    7.4726   -6.4375    0.0000 C   0  0  0  0  0  0  0  0  0  0  0  0
    7.8851   -7.1519    0.0000 O   0  0  0  0  0  0  0  0  0  0  0  0
    7.4726   -7.8664    0.0000 C   0  0  0  0  0  0  0  0  0  0  0  0
    6.6476   -6.4375    0.0000 C   0  0  0  0  0  0  0  0  0  0  0  0
    6.2351   -5.7230    0.0000 C   0  0  0  0  0  0  0  0  0  0  0  0
    5.4193   -5.8459    0.0000 C   0  0  0  0  0  0  0  0  0  0  0  0
    4.8145   -5.2848    0.0000 C   0  0  0  0  0  0  0  0  0  0  0  0
    4.0465   -5.5862    0.0000 O   0  0  0  0  0  0  0  0  0  0  0  0
    0.3758   -5.2590    0.0000 C   0  0  0  0  0  0  0  0  0  0  0  0
   -0.4211   -5.0455    0.0000 C   0  0  0  0  0  0  0  0  0  0  0  0
   -1.2180   -5.2590    0.0000 C   0  0  0  0  0  0  0  0  0  0  0  0
  1  2  1  0  0  0  0
  2  3  1  0  0  0  0
  3  4  4  0  0  0  0
  4  5  1  0  0  0  0
  5  6  1  0  0  0  0
  4  7  4  0  0  0  0
  7  8  4  0  0  0  0
  8  9  1  0  0  0  0
  9 10  1  1  0  0  0
 10 11  1  0  0  0  0
 11 12  1  0  0  0  0
 11 13  1  0  0  0  0
 13 14  1  0  0  0  0
 14 15  1  0  0  0  0
 15 16  1  0  0  0  0
 16 17  1  0  0  0  0
 17 18  1  0  0  0  0
 18 19  1  0  0  0  0
 19 20  4  0  0  0  0
 20 21  4  0  0  0  0
 21 22  1  0  0  0  0
 22 23  1  0  0  0  0
 21 24  4  0  0  0  0
 24 25  1  0  0  0  0
 25 26  1  0  0  0  0
 24 27  4  0  0  0  0
 27 28  4  0  0  0  0
 19 28  4  0  0  0  0
 28 29  1  0  0  0  0
 29 30  1  0  0  0  0
 16 30  1  0  0  0  0
 30 31  2  0  0  0  0
  9 32  1  0  0  0  0
 32 33  1  0  0  0  0
  8 33  4  0  0  0  0
 33 34  4  0  0  0  0
  3 34  4  0  0  0  0
M  END
>  <ID>
3312

>  <PREFERRED_NAME>
ivabradine

>  <CAS_RN>
155974-00-8

>  <SYNONYMS>
ivabradine
corlanor
corlentor
ivabradine hydrochloride
coraxan
procoralan
ivabradine HCl

>  <URL>
http://drugcentral.org/drugcard/3312/view

$$$$
