krypton (81mKr) gas
  -INDIGO-06102311132D

  1  0  0  0  0  0  0  0  0  0999 V2000
    0.0000    0.0000    0.0000 Kr  0  0  0  0  0  0  0  0  0  0  0  0
M  ISO  1   1  81
M  END
>  <ID>
4584

>  <PREFERRED_NAME>
krypton (81mKr) gas

>  <CAS_RN>
15678-91-8

>  <SYNONYMS>
Krypton Kr 81m
krypton, Kr-81M
krypton (81mKr) gas
Kr 81
Krypton-81
81Kr
Krypton (81m Kr)
Krypton (81mKr)
Krypton-81m

>  <URL>
http://drugcentral.org/drugcard/4584/view

$$$$
