lanoconazole
  -INDIGO-06102311102D

 20 22  0  0  0  0  0  0  0  0999 V2000
    0.1067    0.7634    0.0000 Cl  0  0  0  0  0  0  0  0  0  0  0  0
   -0.6078    1.1759    0.0000 C   0  0  0  0  0  0  0  0  0  0  0  0
   -1.3222    0.7634    0.0000 C   0  0  0  0  0  0  0  0  0  0  0  0
   -2.0367    1.1759    0.0000 C   0  0  0  0  0  0  0  0  0  0  0  0
   -2.0367    2.0009    0.0000 C   0  0  0  0  0  0  0  0  0  0  0  0
   -1.3222    2.4134    0.0000 C   0  0  0  0  0  0  0  0  0  0  0  0
   -0.6078    2.0009    0.0000 C   0  0  0  0  0  0  0  0  0  0  0  0
   -1.3222   -0.0616    0.0000 C   0  0  0  0  0  0  0  0  0  0  0  0
   -0.6548   -0.5465    0.0000 C   0  0  0  0  0  0  0  0  0  0  0  0
   -0.9097   -1.3312    0.0000 S   0  0  0  0  0  0  0  0  0  0  0  0
   -1.7347   -1.3312    0.0000 C   0  0  0  0  0  0  0  0  0  0  0  0
   -1.9897   -0.5465    0.0000 S   0  0  0  0  0  0  0  0  0  0  0  0
   -2.2197   -1.9986    0.0000 C   0  0  0  0  0  0  0  0  0  0  0  0
   -3.0401   -1.9124    0.0000 C   0  0  0  0  0  0  0  0  0  0  0  0
   -3.8606   -1.8261    0.0000 N   0  0  0  0  0  0  0  0  0  0  0  0
   -1.8841   -2.7523    0.0000 N   0  0  0  0  0  0  0  0  0  0  0  0
   -1.0771   -2.9238    0.0000 C   0  0  0  0  0  0  0  0  0  0  0  0
   -0.9909   -3.7443    0.0000 C   0  0  0  0  0  0  0  0  0  0  0  0
   -1.7446   -4.0798    0.0000 N   0  0  0  0  0  0  0  0  0  0  0  0
   -2.2966   -3.4667    0.0000 C   0  0  0  0  0  0  0  0  0  0  0  0
  1  2  1  0  0  0  0
  2  3  4  0  0  0  0
  3  4  4  0  0  0  0
  4  5  4  0  0  0  0
  5  6  4  0  0  0  0
  6  7  4  0  0  0  0
  2  7  4  0  0  0  0
  3  8  1  0  0  0  0
  8  9  1  0  0  0  0
  9 10  1  0  0  0  0
 10 11  1  0  0  0  0
 11 12  1  0  0  0  0
  8 12  1  0  0  0  0
 11 13  2  0  0  0  0
 13 14  1  0  0  0  0
 14 15  3  0  0  0  0
 13 16  1  0  0  0  0
 16 17  4  0  0  0  0
 17 18  4  0  0  0  0
 18 19  4  0  0  0  0
 19 20  4  0  0  0  0
 16 20  4  0  0  0  0
M  END
>  <ID>
3979

>  <PREFERRED_NAME>
lanoconazole

>  <CAS_RN>
101530-10-3

>  <SYNONYMS>
lanoconazole
latoconazole
NND-318

>  <URL>
http://drugcentral.org/drugcard/3979/view

$$$$
