lefamulin
  -INDIGO-06102311212D

 35 38  0  0  1  0  0  0  0  0999 V2000
    0.5905    1.3207    0.0000 C   0  0  0  0  0  0  0  0  0  0  0  0
    0.8332    0.5322    0.0000 C   0  0  2  0  0  0  0  0  0  0  0  0
    0.2646    0.0405    0.0000 C   0  0  0  0  0  0  0  0  0  0  0  0
    0.5683   -0.7605    0.0000 C   0  0  0  0  0  0  0  0  0  0  0  0
    1.3804   -1.0897    0.0000 C   0  0  1  0  0  0  0  0  0  0  0  0
    0.5558   -1.1141    0.0000 C   0  0  0  0  0  0  0  0  0  0  0  0
    0.2778   -0.3373    0.0000 C   0  0  0  0  0  0  0  0  0  0  0  0
    0.9307    0.1671    0.0000 C   0  0  0  0  0  0  0  0  0  0  0  0
    0.4262    0.8199    0.0000 O   0  0  0  0  0  0  0  0  0  0  0  0
    1.6121   -0.2979    0.0000 C   0  0  1  0  0  0  0  0  0  0  0  0
    1.7017    0.3748    0.0000 C   0  0  1  0  0  0  0  0  0  0  0  0
    1.7187    1.1996    0.0000 C   0  0  0  0  0  0  0  0  0  0  0  0
    2.5708    0.4956    0.0000 C   0  0  1  0  0  0  0  0  0  0  0  0
    3.3022    0.0412    0.0000 C   0  0  0  0  0  0  0  0  0  0  0  0
    3.4628   -0.7791    0.0000 C   0  0  1  0  0  0  0  0  0  0  0  0
    4.2078   -0.4246    0.0000 C   0  0  0  0  0  0  0  0  0  0  0  0
    3.9910   -1.4128    0.0000 C   0  0  0  0  0  0  0  0  0  0  0  0
    4.8039   -1.2722    0.0000 C   0  0  0  0  0  0  0  0  0  0  0  0
    2.9735   -1.4568    0.0000 C   0  0  1  0  0  0  0  0  0  0  0  0
    3.3940   -2.1666    0.0000 O   0  0  0  0  0  0  0  0  0  0  0  0
    2.1192   -1.5633    0.0000 C   0  0  2  0  0  0  0  0  0  0  0  0
    1.9367   -2.3678    0.0000 C   0  0  0  0  0  0  0  0  0  0  0  0
    2.7419    1.3026    0.0000 O   0  0  0  0  0  0  0  0  0  0  0  0
    3.5264    1.5580    0.0000 C   0  0  0  0  0  0  0  0  0  0  0  0
    3.6975    2.3651    0.0000 O   0  0  0  0  0  0  0  0  0  0  0  0
    4.1398    1.0063    0.0000 C   0  0  0  0  0  0  0  0  0  0  0  0
    4.9243    1.2617    0.0000 S   0  0  0  0  0  0  0  0  0  0  0  0
    5.5377    0.7100    0.0000 C   0  0  2  0  0  0  0  0  0  0  0  0
    5.3666   -0.0971    0.0000 C   0  0  0  0  0  0  0  0  0  0  0  0
    5.9800   -0.6488    0.0000 C   0  0  0  0  0  0  0  0  0  0  0  0
    6.7645   -0.3934    0.0000 C   0  0  1  0  0  0  0  0  0  0  0  0
    7.3779   -0.9451    0.0000 N   0  0  0  0  0  0  0  0  0  0  0  0
    6.9356    0.4136    0.0000 C   0  0  0  0  0  0  0  0  0  0  0  0
    6.3222    0.9653    0.0000 C   0  0  1  0  0  0  0  0  0  0  0  0
    6.4932    1.7724    0.0000 O   0  0  0  0  0  0  0  0  0  0  0  0
  2  1  1  1  0  0  0
  2  3  1  0  0  0  0
  3  4  1  0  0  0  0
  4  5  1  0  0  0  0
  5  6  1  6  0  0  0
  6  7  1  0  0  0  0
  7  8  1  0  0  0  0
  8  9  2  0  0  0  0
 10  8  1  6  0  0  0
  5 10  1  0  0  0  0
 10 11  1  0  0  0  0
  2 11  1  0  0  0  0
 11 12  1  6  0  0  0
 11 13  1  0  0  0  0
 13 14  1  0  0  0  0
 14 15  1  0  0  0  0
 15 16  1  6  0  0  0
 15 17  1  1  0  0  0
 17 18  2  0  0  0  0
 15 19  1  0  0  0  0
 19 20  1  1  0  0  0
 19 21  1  0  0  0  0
  5 21  1  0  0  0  0
 21 22  1  6  0  0  0
 13 23  1  6  0  0  0
 23 24  1  0  0  0  0
 24 25  2  0  0  0  0
 24 26  1  0  0  0  0
 26 27  1  0  0  0  0
 28 27  1  1  0  0  0
 28 29  1  0  0  0  0
 29 30  1  0  0  0  0
 30 31  1  0  0  0  0
 31 32  1  6  0  0  0
 31 33  1  0  0  0  0
 33 34  1  0  0  0  0
 28 34  1  0  0  0  0
 34 35  1  6  0  0  0
M  END
>  <ID>
5348

>  <PREFERRED_NAME>
lefamulin

>  <CAS_RN>
1061337-51-6

>  <SYNONYMS>
lefamulin
lefamulin acetate
BC-3781
xenleta

>  <URL>
http://drugcentral.org/drugcard/5348/view

$$$$
