leiopyrrole
  -INDIGO-06102311102D

 26 28  0  0  0  0  0  0  0  0999 V2000
    3.6224   -3.0536    0.0000 C   0  0  0  0  0  0  0  0  0  0  0  0
    4.4474   -3.0536    0.0000 C   0  0  0  0  0  0  0  0  0  0  0  0
    4.8599   -3.7681    0.0000 N   0  0  0  0  0  0  0  0  0  0  0  0
    4.4474   -4.4826    0.0000 C   0  0  0  0  0  0  0  0  0  0  0  0
    3.6224   -4.4826    0.0000 C   0  0  0  0  0  0  0  0  0  0  0  0
    5.6849   -3.7681    0.0000 C   0  0  0  0  0  0  0  0  0  0  0  0
    6.0974   -4.4826    0.0000 C   0  0  0  0  0  0  0  0  0  0  0  0
    6.9224   -4.4826    0.0000 O   0  0  0  0  0  0  0  0  0  0  0  0
    7.3349   -5.1971    0.0000 C   0  0  0  0  0  0  0  0  0  0  0  0
    8.1599   -5.1971    0.0000 C   0  0  0  0  0  0  0  0  0  0  0  0
    8.5724   -5.9115    0.0000 C   0  0  0  0  0  0  0  0  0  0  0  0
    8.1599   -6.6260    0.0000 C   0  0  0  0  0  0  0  0  0  0  0  0
    7.3349   -6.6260    0.0000 C   0  0  0  0  0  0  0  0  0  0  0  0
    6.9224   -5.9115    0.0000 C   0  0  0  0  0  0  0  0  0  0  0  0
    8.5724   -4.4826    0.0000 N   0  0  0  0  0  0  0  0  0  0  0  0
    8.2368   -3.7289    0.0000 C   0  0  0  0  0  0  0  0  0  0  0  0
    7.4299   -3.5574    0.0000 C   0  0  0  0  0  0  0  0  0  0  0  0
    8.8499   -3.1769    0.0000 C   0  0  0  0  0  0  0  0  0  0  0  0
    9.5644   -3.5894    0.0000 C   0  0  0  0  0  0  0  0  0  0  0  0
    9.3929   -4.3964    0.0000 C   0  0  0  0  0  0  0  0  0  0  0  0
    9.9449   -5.0094    0.0000 C   0  0  0  0  0  0  0  0  0  0  0  0
   10.7519   -4.8379    0.0000 C   0  0  0  0  0  0  0  0  0  0  0  0
   11.3039   -5.4510    0.0000 C   0  0  0  0  0  0  0  0  0  0  0  0
   11.0490   -6.2356    0.0000 C   0  0  0  0  0  0  0  0  0  0  0  0
   10.2420   -6.4072    0.0000 C   0  0  0  0  0  0  0  0  0  0  0  0
    9.6900   -5.7941    0.0000 C   0  0  0  0  0  0  0  0  0  0  0  0
  1  2  1  0  0  0  0
  2  3  1  0  0  0  0
  3  4  1  0  0  0  0
  4  5  1  0  0  0  0
  3  6  1  0  0  0  0
  6  7  1  0  0  0  0
  7  8  1  0  0  0  0
  8  9  1  0  0  0  0
  9 10  4  0  0  0  0
 10 11  4  0  0  0  0
 11 12  4  0  0  0  0
 12 13  4  0  0  0  0
 13 14  4  0  0  0  0
  9 14  4  0  0  0  0
 10 15  1  0  0  0  0
 15 16  4  0  0  0  0
 16 17  1  0  0  0  0
 16 18  4  0  0  0  0
 18 19  4  0  0  0  0
 19 20  4  0  0  0  0
 15 20  4  0  0  0  0
 20 21  1  0  0  0  0
 21 22  4  0  0  0  0
 22 23  4  0  0  0  0
 23 24  4  0  0  0  0
 24 25  4  0  0  0  0
 25 26  4  0  0  0  0
 21 26  4  0  0  0  0
M  END
>  <ID>
3765

>  <PREFERRED_NAME>
leiopyrrole

>  <CAS_RN>
5633-16-9

>  <SYNONYMS>
leiopyrrole
leioplegil

>  <URL>
http://drugcentral.org/drugcard/3765/view

$$$$
