linopirdine
  -INDIGO-06102311132D

 30 34  0  0  0  0  0  0  0  0999 V2000
   -0.1712   -0.6979    0.0000 O   0  0  0  0  0  0  0  0  0  0  0  0
    0.6538   -0.6979    0.0000 C   0  0  0  0  0  0  0  0  0  0  0  0
    1.1387   -0.0305    0.0000 N   0  0  0  0  0  0  0  0  0  0  0  0
    1.9233   -0.2854    0.0000 C   0  0  0  0  0  0  0  0  0  0  0  0
    2.6378    0.1271    0.0000 C   0  0  0  0  0  0  0  0  0  0  0  0
    3.3523   -0.2854    0.0000 C   0  0  0  0  0  0  0  0  0  0  0  0
    3.3523   -1.1104    0.0000 C   0  0  0  0  0  0  0  0  0  0  0  0
    2.6378   -1.5229    0.0000 C   0  0  0  0  0  0  0  0  0  0  0  0
    1.9233   -1.1104    0.0000 C   0  0  0  0  0  0  0  0  0  0  0  0
    1.1387   -1.3654    0.0000 C   0  0  0  0  0  0  0  0  0  0  0  0
    1.3018   -2.1741    0.0000 C   0  0  0  0  0  0  0  0  0  0  0  0
    2.0837   -2.4372    0.0000 C   0  0  0  0  0  0  0  0  0  0  0  0
    2.7025   -1.8917    0.0000 C   0  0  0  0  0  0  0  0  0  0  0  0
    3.4844   -2.1548    0.0000 C   0  0  0  0  0  0  0  0  0  0  0  0
    3.6475   -2.9635    0.0000 N   0  0  0  0  0  0  0  0  0  0  0  0
    3.0287   -3.5091    0.0000 C   0  0  0  0  0  0  0  0  0  0  0  0
    2.2468   -3.2460    0.0000 C   0  0  0  0  0  0  0  0  0  0  0  0
    0.5314   -1.9238    0.0000 C   0  0  0  0  0  0  0  0  0  0  0  0
   -0.2558   -1.6771    0.0000 C   0  0  0  0  0  0  0  0  0  0  0  0
   -0.8631   -2.2355    0.0000 C   0  0  0  0  0  0  0  0  0  0  0  0
   -1.6503   -1.9888    0.0000 C   0  0  0  0  0  0  0  0  0  0  0  0
   -1.8303   -1.1837    0.0000 N   0  0  0  0  0  0  0  0  0  0  0  0
   -1.2230   -0.6253    0.0000 C   0  0  0  0  0  0  0  0  0  0  0  0
   -0.4358   -0.8720    0.0000 C   0  0  0  0  0  0  0  0  0  0  0  0
    0.8838    0.7541    0.0000 C   0  0  0  0  0  0  0  0  0  0  0  0
    0.0768    0.9256    0.0000 C   0  0  0  0  0  0  0  0  0  0  0  0
   -0.1781    1.7103    0.0000 C   0  0  0  0  0  0  0  0  0  0  0  0
    0.3739    2.3234    0.0000 C   0  0  0  0  0  0  0  0  0  0  0  0
    1.1809    2.1518    0.0000 C   0  0  0  0  0  0  0  0  0  0  0  0
    1.4358    1.3672    0.0000 C   0  0  0  0  0  0  0  0  0  0  0  0
  1  2  2  0  0  0  0
  2  3  1  0  0  0  0
  3  4  1  0  0  0  0
  4  5  4  0  0  0  0
  5  6  4  0  0  0  0
  6  7  4  0  0  0  0
  7  8  4  0  0  0  0
  8  9  4  0  0  0  0
  4  9  4  0  0  0  0
  9 10  1  0  0  0  0
  2 10  1  0  0  0  0
 10 11  1  0  0  0  0
 11 12  1  0  0  0  0
 12 13  4  0  0  0  0
 13 14  4  0  0  0  0
 14 15  4  0  0  0  0
 15 16  4  0  0  0  0
 16 17  4  0  0  0  0
 12 17  4  0  0  0  0
 10 18  1  0  0  0  0
 18 19  1  0  0  0  0
 19 20  4  0  0  0  0
 20 21  4  0  0  0  0
 21 22  4  0  0  0  0
 22 23  4  0  0  0  0
 23 24  4  0  0  0  0
 19 24  4  0  0  0  0
  3 25  1  0  0  0  0
 25 26  4  0  0  0  0
 26 27  4  0  0  0  0
 27 28  4  0  0  0  0
 28 29  4  0  0  0  0
 29 30  4  0  0  0  0
 25 30  4  0  0  0  0
M  END
>  <ID>
4588

>  <PREFERRED_NAME>
linopirdine

>  <CAS_RN>
105431-72-9

>  <SYNONYMS>
linopirdine

>  <URL>
http://drugcentral.org/drugcard/4588/view

$$$$
