lividomycin
  -INDIGO-06102311012D

 52 56  0  0  1  0  0  0  0  0999 V2000
   -6.3235   -1.4223    0.0000 N   0  0  0  0  0  0  0  0  0  0  0  0
   -6.3235   -0.5973    0.0000 C   0  0  0  0  0  0  0  0  0  0  0  0
   -5.6091   -0.1848    0.0000 C   0  0  2  0  0  0  0  0  0  0  0  0
   -4.8946   -0.5973    0.0000 O   0  0  0  0  0  0  0  0  0  0  0  0
   -4.1801   -0.1848    0.0000 C   0  0  2  0  0  0  0  0  0  0  0  0
   -3.4656   -0.5973    0.0000 O   0  0  0  0  0  0  0  0  0  0  0  0
   -3.4656   -1.4223    0.0000 C   0  0  2  0  0  0  0  0  0  0  0  0
   -4.1331   -1.9072    0.0000 C   0  0  1  0  0  0  0  0  0  0  0  0
   -4.9177   -1.6523    0.0000 C   0  0  0  0  0  0  0  0  0  0  0  0
   -5.5308   -2.2043    0.0000 O   0  0  0  0  0  0  0  0  0  0  0  0
   -3.8781   -2.6919    0.0000 O   0  0  0  0  0  0  0  0  0  0  0  0
   -3.0531   -2.6919    0.0000 C   0  0  1  0  0  0  0  0  0  0  0  0
   -2.5682   -3.3593    0.0000 O   0  0  0  0  0  0  0  0  0  0  0  0
   -2.9038   -4.1130    0.0000 C   0  0  2  0  0  0  0  0  0  0  0  0
   -3.7243   -4.1992    0.0000 C   0  0  1  0  0  0  0  0  0  0  0  0
   -4.2092   -3.5318    0.0000 O   0  0  0  0  0  0  0  0  0  0  0  0
   -4.0598   -4.9529    0.0000 C   0  0  2  0  0  0  0  0  0  0  0  0
   -4.8803   -5.0391    0.0000 N   0  0  0  0  0  0  0  0  0  0  0  0
   -3.5749   -5.6203    0.0000 C   0  0  0  0  0  0  0  0  0  0  0  0
   -2.7544   -5.5341    0.0000 C   0  0  2  0  0  0  0  0  0  0  0  0
   -2.2695   -6.2015    0.0000 N   0  0  0  0  0  0  0  0  0  0  0  0
   -2.4189   -4.7804    0.0000 C   0  0  1  0  0  0  0  0  0  0  0  0
   -1.5984   -4.6942    0.0000 O   0  0  0  0  0  0  0  0  0  0  0  0
   -1.1135   -5.3616    0.0000 C   0  0  1  0  0  0  0  0  0  0  0  0
   -1.4490   -6.1153    0.0000 O   0  0  0  0  0  0  0  0  0  0  0  0
   -0.9641   -6.7827    0.0000 C   0  0  2  0  0  0  0  0  0  0  0  0
   -1.2997   -7.5364    0.0000 C   0  0  0  0  0  0  0  0  0  0  0  0
   -0.8147   -8.2038    0.0000 O   0  0  0  0  0  0  0  0  0  0  0  0
   -0.1436   -6.6965    0.0000 C   0  0  1  0  0  0  0  0  0  0  0  0
    0.3413   -7.3639    0.0000 O   0  0  0  0  0  0  0  0  0  0  0  0
    0.1919   -5.9428    0.0000 C   0  0  0  0  0  0  0  0  0  0  0  0
   -0.2930   -5.2754    0.0000 C   0  0  1  0  0  0  0  0  0  0  0  0
    0.0426   -4.5217    0.0000 N   0  0  0  0  0  0  0  0  0  0  0  0
   -2.7982   -1.9072    0.0000 C   0  0  2  0  0  0  0  0  0  0  0  0
   -2.0136   -1.6523    0.0000 O   0  0  0  0  0  0  0  0  0  0  0  0
   -4.1801    0.6402    0.0000 C   0  0  2  0  0  0  0  0  0  0  0  0
   -3.4656    1.0527    0.0000 N   0  0  0  0  0  0  0  0  0  0  0  0
   -4.8946    1.0527    0.0000 C   0  0  1  0  0  0  0  0  0  0  0  0
   -4.8946    1.8777    0.0000 O   0  0  0  0  0  0  0  0  0  0  0  0
   -5.6091    0.6402    0.0000 C   0  0  2  0  0  0  0  0  0  0  0  0
   -6.3235    1.0527    0.0000 O   0  0  0  0  0  0  0  0  0  0  0  0
   -7.0380    0.6402    0.0000 C   0  0  1  0  0  0  0  0  0  0  0  0
   -7.0380   -0.1848    0.0000 O   0  0  0  0  0  0  0  0  0  0  0  0
   -7.7525   -0.5973    0.0000 C   0  0  2  0  0  0  0  0  0  0  0  0
   -7.7525   -1.4223    0.0000 C   0  0  0  0  0  0  0  0  0  0  0  0
   -8.4669   -1.8348    0.0000 O   0  0  0  0  0  0  0  0  0  0  0  0
   -8.4669   -0.1848    0.0000 C   0  0  1  0  0  0  0  0  0  0  0  0
   -9.1814   -0.5973    0.0000 O   0  0  0  0  0  0  0  0  0  0  0  0
   -8.4669    0.6402    0.0000 C   0  0  2  0  0  0  0  0  0  0  0  0
   -9.1814    1.0527    0.0000 O   0  0  0  0  0  0  0  0  0  0  0  0
   -7.7525    1.0527    0.0000 C   0  0  2  0  0  0  0  0  0  0  0  0
   -7.7525    1.8777    0.0000 O   0  0  0  0  0  0  0  0  0  0  0  0
  1  2  1  0  0  0  0
  3  2  1  1  0  0  0
  3  4  1  0  0  0  0
  4  5  1  0  0  0  0
  5  6  1  1  0  0  0
  7  6  1  1  0  0  0
  7  8  1  0  0  0  0
  8  9  1  6  0  0  0
  9 10  1  0  0  0  0
  8 11  1  0  0  0  0
 11 12  1  0  0  0  0
 12 13  1  6  0  0  0
 14 13  1  1  0  0  0
 14 15  1  0  0  0  0
 15 16  1  6  0  0  0
 15 17  1  0  0  0  0
 17 18  1  1  0  0  0
 17 19  1  0  0  0  0
 19 20  1  0  0  0  0
 20 21  1  1  0  0  0
 20 22  1  0  0  0  0
 14 22  1  0  0  0  0
 22 23  1  6  0  0  0
 24 23  1  6  0  0  0
 24 25  1  0  0  0  0
 25 26  1  0  0  0  0
 26 27  1  1  0  0  0
 27 28  1  0  0  0  0
 26 29  1  0  0  0  0
 29 30  1  6  0  0  0
 29 31  1  0  0  0  0
 31 32  1  0  0  0  0
 24 32  1  0  0  0  0
 32 33  1  6  0  0  0
 12 34  1  0  0  0  0
  7 34  1  0  0  0  0
 34 35  1  1  0  0  0
  5 36  1  0  0  0  0
 36 37  1  1  0  0  0
 36 38  1  0  0  0  0
 38 39  1  6  0  0  0
 38 40  1  0  0  0  0
  3 40  1  0  0  0  0
 40 41  1  1  0  0  0
 42 41  1  1  0  0  0
 42 43  1  0  0  0  0
 43 44  1  0  0  0  0
 44 45  1  6  0  0  0
 45 46  1  0  0  0  0
 44 47  1  0  0  0  0
 47 48  1  1  0  0  0
 47 49  1  0  0  0  0
 49 50  1  6  0  0  0
 49 51  1  0  0  0  0
 42 51  1  0  0  0  0
 51 52  1  6  0  0  0
M  END
>  <ID>
1589

>  <PREFERRED_NAME>
lividomycin

>  <CAS_RN>
36441-41-5

>  <SYNONYMS>
lividomycin
mannosyldeoxyparomomycin
Lividomycin A
Quintomycin B

>  <URL>
http://drugcentral.org/drugcard/1589/view

$$$$
