lofepramine
  -INDIGO-06102311012D

 30 33  0  0  0  0  0  0  0  0999 V2000
    2.4951   -1.0548    0.0000 C   0  0  0  0  0  0  0  0  0  0  0  0
    2.4951   -1.8798    0.0000 N   0  0  0  0  0  0  0  0  0  0  0  0
    1.7807   -2.2923    0.0000 C   0  0  0  0  0  0  0  0  0  0  0  0
    1.0662   -1.8798    0.0000 C   0  0  0  0  0  0  0  0  0  0  0  0
    0.3517   -2.2923    0.0000 C   0  0  0  0  0  0  0  0  0  0  0  0
   -0.3627   -1.8798    0.0000 N   0  0  0  0  0  0  0  0  0  0  0  0
   -1.0444   -2.3446    0.0000 C   0  0  0  0  0  0  0  0  0  0  0  0
   -0.8608   -3.1489    0.0000 C   0  0  0  0  0  0  0  0  0  0  0  0
   -1.4656   -3.7100    0.0000 C   0  0  0  0  0  0  0  0  0  0  0  0
   -2.2539   -3.4669    0.0000 C   0  0  0  0  0  0  0  0  0  0  0  0
   -2.4375   -2.6625    0.0000 C   0  0  0  0  0  0  0  0  0  0  0  0
   -1.8327   -2.1014    0.0000 C   0  0  0  0  0  0  0  0  0  0  0  0
   -2.1341   -1.3334    0.0000 C   0  0  0  0  0  0  0  0  0  0  0  0
   -1.7216   -0.6190    0.0000 C   0  0  0  0  0  0  0  0  0  0  0  0
   -0.9059   -0.4960    0.0000 C   0  0  0  0  0  0  0  0  0  0  0  0
   -0.3011   -1.0571    0.0000 C   0  0  0  0  0  0  0  0  0  0  0  0
    0.4873   -0.8140    0.0000 C   0  0  0  0  0  0  0  0  0  0  0  0
    0.6708   -0.0097    0.0000 C   0  0  0  0  0  0  0  0  0  0  0  0
    0.0661    0.5515    0.0000 C   0  0  0  0  0  0  0  0  0  0  0  0
   -0.7223    0.3083    0.0000 C   0  0  0  0  0  0  0  0  0  0  0  0
    3.2096   -2.2923    0.0000 C   0  0  0  0  0  0  0  0  0  0  0  0
    3.9241   -1.8798    0.0000 C   0  0  0  0  0  0  0  0  0  0  0  0
    3.9241   -1.0548    0.0000 O   0  0  0  0  0  0  0  0  0  0  0  0
    4.6386   -2.2923    0.0000 C   0  0  0  0  0  0  0  0  0  0  0  0
    5.3530   -1.8798    0.0000 C   0  0  0  0  0  0  0  0  0  0  0  0
    6.0675   -2.2923    0.0000 C   0  0  0  0  0  0  0  0  0  0  0  0
    6.0675   -3.1173    0.0000 C   0  0  0  0  0  0  0  0  0  0  0  0
    6.7820   -3.5298    0.0000 Cl  0  0  0  0  0  0  0  0  0  0  0  0
    5.3530   -3.5298    0.0000 C   0  0  0  0  0  0  0  0  0  0  0  0
    4.6386   -3.1173    0.0000 C   0  0  0  0  0  0  0  0  0  0  0  0
  1  2  1  0  0  0  0
  2  3  1  0  0  0  0
  3  4  1  0  0  0  0
  4  5  1  0  0  0  0
  5  6  1  0  0  0  0
  6  7  1  0  0  0  0
  7  8  4  0  0  0  0
  8  9  4  0  0  0  0
  9 10  4  0  0  0  0
 10 11  4  0  0  0  0
 11 12  4  0  0  0  0
  7 12  4  0  0  0  0
 12 13  1  0  0  0  0
 13 14  1  0  0  0  0
 14 15  1  0  0  0  0
 15 16  4  0  0  0  0
  6 16  1  0  0  0  0
 16 17  4  0  0  0  0
 17 18  4  0  0  0  0
 18 19  4  0  0  0  0
 19 20  4  0  0  0  0
 15 20  4  0  0  0  0
  2 21  1  0  0  0  0
 21 22  1  0  0  0  0
 22 23  2  0  0  0  0
 22 24  1  0  0  0  0
 24 25  4  0  0  0  0
 25 26  4  0  0  0  0
 26 27  4  0  0  0  0
 27 28  1  0  0  0  0
 27 29  4  0  0  0  0
 29 30  4  0  0  0  0
 24 30  4  0  0  0  0
M  END
>  <ID>
1592

>  <PREFERRED_NAME>
lofepramine

>  <CAS_RN>
23047-25-8

>  <SYNONYMS>
lofepramine
lopramine
lofepramine hydrochloride
lopramine hydrochloride
WHR-2908A
lofepramine HCl
lopramine HCl

>  <URL>
http://drugcentral.org/drugcard/1592/view

$$$$
