loperamide oxide
  -INDIGO-06102311012D

 35 38  0  0  0  0  0  0  0  0999 V2000
    1.0138   -0.9807    0.0000 C   0  0  0  0  0  0  0  0  0  0  0  0
    0.3818   -0.4504    0.0000 N   0  0  0  0  0  0  0  0  0  0  0  0
   -0.3935   -0.7325    0.0000 C   0  0  0  0  0  0  0  0  0  0  0  0
    0.5250    0.3621    0.0000 C   0  0  0  0  0  0  0  0  0  0  0  0
    1.3003    0.6443    0.0000 O   0  0  0  0  0  0  0  0  0  0  0  0
   -0.1069    0.8924    0.0000 C   0  0  0  0  0  0  0  0  0  0  0  0
   -0.6372    0.2604    0.0000 C   0  0  0  0  0  0  0  0  0  0  0  0
   -1.4497    0.4037    0.0000 C   0  0  0  0  0  0  0  0  0  0  0  0
   -1.9800   -0.2283    0.0000 N   0  0  2  0  0  0  0  0  0  0  0  0
   -2.5103    0.4037    0.0000 O   0  0  0  0  0  0  0  0  0  0  0  0
   -1.2655   -0.6408    0.0000 C   0  0  0  0  0  0  0  0  0  0  0  0
   -1.2655   -1.4658    0.0000 C   0  0  0  0  0  0  0  0  0  0  0  0
   -1.9800   -1.8783    0.0000 C   0  0  2  0  0  0  0  0  0  0  0  0
   -1.4497   -2.5103    0.0000 O   0  0  0  0  0  0  0  0  0  0  0  0
   -2.6945   -1.4658    0.0000 C   0  0  0  0  0  0  0  0  0  0  0  0
   -2.6945   -0.6408    0.0000 C   0  0  0  0  0  0  0  0  0  0  0  0
   -2.5103   -2.5103    0.0000 C   0  0  0  0  0  0  0  0  0  0  0  0
   -2.2281   -3.2856    0.0000 C   0  0  0  0  0  0  0  0  0  0  0  0
   -2.7584   -3.9175    0.0000 C   0  0  0  0  0  0  0  0  0  0  0  0
   -3.5709   -3.7743    0.0000 C   0  0  0  0  0  0  0  0  0  0  0  0
   -4.1012   -4.4063    0.0000 Cl  0  0  0  0  0  0  0  0  0  0  0  0
   -3.8531   -2.9990    0.0000 C   0  0  0  0  0  0  0  0  0  0  0  0
   -3.3228   -2.3671    0.0000 C   0  0  0  0  0  0  0  0  0  0  0  0
    0.4234    1.5244    0.0000 C   0  0  0  0  0  0  0  0  0  0  0  0
    0.1412    2.2996    0.0000 C   0  0  0  0  0  0  0  0  0  0  0  0
    0.6715    2.9316    0.0000 C   0  0  0  0  0  0  0  0  0  0  0  0
    1.4839    2.7883    0.0000 C   0  0  0  0  0  0  0  0  0  0  0  0
    1.7661    2.0131    0.0000 C   0  0  0  0  0  0  0  0  0  0  0  0
    1.2358    1.3811    0.0000 C   0  0  0  0  0  0  0  0  0  0  0  0
   -0.7389    1.4227    0.0000 C   0  0  0  0  0  0  0  0  0  0  0  0
   -1.5142    1.1405    0.0000 C   0  0  0  0  0  0  0  0  0  0  0  0
   -2.1462    1.6708    0.0000 C   0  0  0  0  0  0  0  0  0  0  0  0
   -2.0029    2.4833    0.0000 C   0  0  0  0  0  0  0  0  0  0  0  0
   -1.2277    2.7655    0.0000 C   0  0  0  0  0  0  0  0  0  0  0  0
   -0.5957    2.2352    0.0000 C   0  0  0  0  0  0  0  0  0  0  0  0
  1  2  1  0  0  0  0
  2  3  1  0  0  0  0
  2  4  1  0  0  0  0
  4  5  2  0  0  0  0
  4  6  1  0  0  0  0
  6  7  1  0  0  0  0
  7  8  1  0  0  0  0
  9  8  1  6  0  0  0
  9 10  1  1  0  0  0
  9 11  1  0  0  0  0
 11 12  1  0  0  0  0
 12 13  1  0  0  0  0
 13 14  1  6  0  0  0
 13 15  1  0  0  0  0
 15 16  1  0  0  0  0
  9 16  1  0  0  0  0
 13 17  1  1  0  0  0
 17 18  4  0  0  0  0
 18 19  4  0  0  0  0
 19 20  4  0  0  0  0
 20 21  1  0  0  0  0
 20 22  4  0  0  0  0
 22 23  4  0  0  0  0
 17 23  4  0  0  0  0
  6 24  1  0  0  0  0
 24 25  4  0  0  0  0
 25 26  4  0  0  0  0
 26 27  4  0  0  0  0
 27 28  4  0  0  0  0
 28 29  4  0  0  0  0
 24 29  4  0  0  0  0
  6 30  1  0  0  0  0
 30 31  4  0  0  0  0
 31 32  4  0  0  0  0
 32 33  4  0  0  0  0
 33 34  4  0  0  0  0
 34 35  4  0  0  0  0
 30 35  4  0  0  0  0
M  CHG  2   9   1  10  -1
M  END
>  <ID>
1600

>  <PREFERRED_NAME>
loperamide oxide

>  <CAS_RN>
106900-12-3

>  <SYNONYMS>
loperamide oxide
loperamide oxide monohydrate
arestal

>  <URL>
http://drugcentral.org/drugcard/1600/view

$$$$
