lorpiprazole
  -INDIGO-06102311182D

 29 33  0  0  0  0  0  0  0  0999 V2000
   -1.2985   -8.0821    0.0000 F   0  0  0  0  0  0  0  0  0  0  0  0
   -1.6341   -7.3284    0.0000 C   0  0  0  0  0  0  0  0  0  0  0  0
   -0.8804   -6.9928    0.0000 F   0  0  0  0  0  0  0  0  0  0  0  0
   -2.3878   -7.6639    0.0000 F   0  0  0  0  0  0  0  0  0  0  0  0
   -1.9697   -6.5747    0.0000 C   0  0  0  0  0  0  0  0  0  0  0  0
   -2.7901   -6.4885    0.0000 C   0  0  0  0  0  0  0  0  0  0  0  0
   -3.1257   -5.7348    0.0000 C   0  0  0  0  0  0  0  0  0  0  0  0
   -2.6408   -5.0674    0.0000 C   0  0  0  0  0  0  0  0  0  0  0  0
   -1.8203   -5.1536    0.0000 C   0  0  0  0  0  0  0  0  0  0  0  0
   -1.4847   -5.9073    0.0000 C   0  0  0  0  0  0  0  0  0  0  0  0
   -1.3354   -4.4862    0.0000 N   0  0  0  0  0  0  0  0  0  0  0  0
   -1.6709   -3.7325    0.0000 C   0  0  0  0  0  0  0  0  0  0  0  0
   -1.1860   -3.0650    0.0000 C   0  0  0  0  0  0  0  0  0  0  0  0
   -0.3655   -3.1513    0.0000 N   0  0  0  0  0  0  0  0  0  0  0  0
    0.1194   -2.4838    0.0000 C   0  0  0  0  0  0  0  0  0  0  0  0
    0.9399   -2.5701    0.0000 C   0  0  0  0  0  0  0  0  0  0  0  0
    1.4248   -1.9026    0.0000 C   0  0  0  0  0  0  0  0  0  0  0  0
    1.1699   -1.1180    0.0000 N   0  0  0  0  0  0  0  0  0  0  0  0
    1.8373   -0.6331    0.0000 N   0  0  0  0  0  0  0  0  0  0  0  0
    2.5047   -1.1180    0.0000 C   0  0  0  0  0  0  0  0  0  0  0  0
    3.3297   -1.1180    0.0000 C   0  0  0  0  0  0  0  0  0  0  0  0
    3.9972   -0.6331    0.0000 C   0  0  0  0  0  0  0  0  0  0  0  0
    4.6646   -1.1180    0.0000 C   0  0  0  0  0  0  0  0  0  0  0  0
    4.4097   -1.9026    0.0000 C   0  0  0  0  0  0  0  0  0  0  0  0
    3.5847   -1.9026    0.0000 C   0  0  0  0  0  0  0  0  0  0  0  0
    2.9172   -2.3876    0.0000 C   0  0  0  0  0  0  0  0  0  0  0  0
    2.2498   -1.9026    0.0000 N   0  0  0  0  0  0  0  0  0  0  0  0
   -0.0300   -3.9050    0.0000 C   0  0  0  0  0  0  0  0  0  0  0  0
   -0.5149   -4.5724    0.0000 C   0  0  0  0  0  0  0  0  0  0  0  0
  1  2  1  0  0  0  0
  2  3  1  0  0  0  0
  2  4  1  0  0  0  0
  2  5  1  0  0  0  0
  5  6  4  0  0  0  0
  6  7  4  0  0  0  0
  7  8  4  0  0  0  0
  8  9  4  0  0  0  0
  9 10  4  0  0  0  0
  5 10  4  0  0  0  0
  9 11  1  0  0  0  0
 11 12  1  0  0  0  0
 12 13  1  0  0  0  0
 13 14  1  0  0  0  0
 14 15  1  0  0  0  0
 15 16  1  0  0  0  0
 16 17  1  0  0  0  0
 17 18  4  0  0  0  0
 18 19  4  0  0  0  0
 19 20  4  0  0  0  0
 20 21  1  0  0  0  0
 21 22  1  0  0  0  0
 22 23  1  0  0  0  0
 23 24  1  0  0  0  0
 24 25  1  0  0  0  0
 21 25  1  0  0  0  0
 25 26  1  0  0  0  0
 26 27  1  0  0  0  0
 17 27  4  0  0  0  0
 20 27  4  0  0  0  0
 14 28  1  0  0  0  0
 28 29  1  0  0  0  0
 11 29  1  0  0  0  0
M  END
>  <ID>
5098

>  <PREFERRED_NAME>
lorpiprazole

>  <CAS_RN>
108785-69-9

>  <SYNONYMS>
lorpiprazole
normarex

>  <URL>
http://drugcentral.org/drugcard/5098/view

$$$$
