lucimycin
  -INDIGO-06102311092D

 50 53  0  0  1  0  0  0  0  0999 V2000
   -1.4957   -1.4484    0.0000 C   0  0  0  0  0  0  0  0  0  0  0  0
   -1.3211   -0.6421    0.0000 C   0  0  0  0  0  0  0  0  0  0  0  0
   -0.5355   -0.3901    0.0000 C   0  0  0  0  0  0  0  0  0  0  0  0
   -0.3609    0.4162    0.0000 C   0  0  0  0  0  0  0  0  0  0  0  0
    0.4246    0.6682    0.0000 C   0  0  0  0  0  0  0  0  0  0  0  0
    0.5992    1.4745    0.0000 C   0  0  0  0  0  0  0  0  0  0  0  0
    1.3848    1.7265    0.0000 C   0  0  0  0  0  0  0  0  0  0  0  0
    1.9958    1.1721    0.0000 C   0  0  0  0  0  0  0  0  0  0  0  0
    2.7814    1.4241    0.0000 C   0  0  0  0  0  0  0  0  0  0  0  0
    3.3924    0.8697    0.0000 C   0  0  0  0  0  0  0  0  0  0  0  0
    4.1780    1.1217    0.0000 C   0  0  0  0  0  0  0  0  0  0  0  0
    4.7890    0.5674    0.0000 C   0  0  0  0  0  0  0  0  0  0  0  0
    5.5746    0.8193    0.0000 C   0  0  0  0  0  0  0  0  0  0  0  0
    6.1856    0.2650    0.0000 C   0  0  0  0  0  0  0  0  0  0  0  0
    6.9711    0.5170    0.0000 C   0  0  0  0  0  0  0  0  0  0  0  0
    7.5821   -0.0374    0.0000 C   0  0  0  0  0  0  0  0  0  0  0  0
    7.4076   -0.8437    0.0000 C   0  0  0  0  0  0  0  0  0  0  0  0
    6.6220   -1.0957    0.0000 O   0  0  0  0  0  0  0  0  0  0  0  0
    6.4474   -1.9020    0.0000 C   0  0  0  0  0  0  0  0  0  0  0  0
    6.2728   -2.7083    0.0000 O   0  0  0  0  0  0  0  0  0  0  0  0
    7.0584   -2.4563    0.0000 C   0  0  0  0  0  0  0  0  0  0  0  0
    7.8440   -2.2043    0.0000 C   0  0  0  0  0  0  0  0  0  0  0  0
    8.4550   -2.7587    0.0000 O   0  0  0  0  0  0  0  0  0  0  0  0
    8.0186   -1.3980    0.0000 C   0  0  0  0  0  0  0  0  0  0  0  0
    8.8042   -1.1461    0.0000 C   0  0  0  0  0  0  0  0  0  0  0  0
    8.9787   -0.3397    0.0000 O   0  0  0  0  0  0  0  0  0  0  0  0
    9.4152   -1.7004    0.0000 O   0  0  0  0  0  0  0  0  0  0  0  0
    5.6618   -2.1539    0.0000 C   0  0  0  0  0  0  0  0  0  0  0  0
    5.0508   -1.5996    0.0000 C   0  0  0  0  0  0  0  0  0  0  0  0
    5.2254   -0.7933    0.0000 O   0  0  0  0  0  0  0  0  0  0  0  0
    4.2653   -1.8516    0.0000 C   0  0  0  0  0  0  0  0  0  0  0  0
    3.6542   -1.2972    0.0000 C   0  0  0  0  0  0  0  0  0  0  0  0
    3.4797   -2.1036    0.0000 O   0  0  0  0  0  0  0  0  0  0  0  0
    2.8687   -1.5492    0.0000 C   0  0  0  0  0  0  0  0  0  0  0  0
    2.2577   -0.9949    0.0000 C   0  0  0  0  0  0  0  0  0  0  0  0
    1.4721   -1.2468    0.0000 C   0  0  0  0  0  0  0  0  0  0  0  0
    0.8611   -0.6925    0.0000 C   0  0  0  0  0  0  0  0  0  0  0  0
    0.0755   -0.9445    0.0000 O   0  0  0  0  0  0  0  0  0  0  0  0
    1.0357    0.1138    0.0000 O   0  0  0  0  0  0  0  0  0  0  0  0
    7.1457    1.3233    0.0000 O   0  0  0  0  0  0  0  0  0  0  0  0
    7.9313    1.5753    0.0000 C   0  0  2  0  0  0  0  0  0  0  0  0
    8.1059    2.3816    0.0000 O   0  0  0  0  0  0  0  0  0  0  0  0
    8.8914    2.6336    0.0000 C   0  0  2  0  0  0  0  0  0  0  0  0
    9.0660    3.4399    0.0000 C   0  0  0  0  0  0  0  0  0  0  0  0
    9.5024    2.0792    0.0000 C   0  0  1  0  0  0  0  0  0  0  0  0
   10.2880    2.3312    0.0000 O   0  0  0  0  0  0  0  0  0  0  0  0
    9.3279    1.2729    0.0000 C   0  0  2  0  0  0  0  0  0  0  0  0
    9.9389    0.7186    0.0000 N   0  0  0  0  0  0  0  0  0  0  0  0
    8.5423    1.0209    0.0000 C   0  0  2  0  0  0  0  0  0  0  0  0
    8.3677    0.2146    0.0000 O   0  0  0  0  0  0  0  0  0  0  0  0
  1  2  1  0  0  0  0
  2  3  1  0  0  0  0
  3  4  1  0  0  0  0
  4  5  1  0  0  0  0
  5  6  1  0  0  0  0
  6  7  1  0  0  0  0
  7  8  2  0  0  0  0
  8  9  1  0  0  0  0
  9 10  2  0  0  0  0
 10 11  1  0  0  0  0
 11 12  2  0  0  0  0
 12 13  1  0  0  0  0
 13 14  2  0  0  0  0
 14 15  1  0  0  0  0
 15 16  1  0  0  0  0
 16 17  1  0  0  0  0
 17 18  1  0  0  0  0
 18 19  1  0  0  0  0
 19 20  1  0  0  0  0
 19 21  1  0  0  0  0
 21 22  1  0  0  0  0
 22 23  1  0  0  0  0
 22 24  1  0  0  0  0
 17 24  1  0  0  0  0
 24 25  1  0  0  0  0
 25 26  1  0  0  0  0
 25 27  2  0  0  0  0
 19 28  1  0  0  0  0
 28 29  1  0  0  0  0
 29 30  1  0  0  0  0
 29 31  1  0  0  0  0
 31 32  1  0  0  0  0
 32 33  1  0  0  0  0
 33 34  1  0  0  0  0
 32 34  1  0  0  0  0
 34 35  1  0  0  0  0
 35 36  2  0  0  0  0
 36 37  1  0  0  0  0
 37 38  2  0  0  0  0
 37 39  1  0  0  0  0
  5 39  1  0  0  0  0
 15 40  1  0  0  0  0
 41 40  1  6  0  0  0
 41 42  1  0  0  0  0
 42 43  1  0  0  0  0
 43 44  1  6  0  0  0
 43 45  1  0  0  0  0
 45 46  1  1  0  0  0
 45 47  1  0  0  0  0
 47 48  1  6  0  0  0
 47 49  1  0  0  0  0
 41 49  1  0  0  0  0
 49 50  1  6  0  0  0
M  END
>  <ID>
3329

>  <PREFERRED_NAME>
lucimycin

>  <CAS_RN>
13058-67-8

>  <SYNONYMS>
lucimycin
lucensomycin
etruscomycin
leucensomycin
lucimycine
lucimicina

>  <URL>
http://drugcentral.org/drugcard/3329/view

$$$$
