lumacaftor
  -INDIGO-06102311182D

 33 37  0  0  0  0  0  0  0  0999 V2000
    7.5307   -0.6687    0.0000 C   0  0  0  0  0  0  0  0  0  0  0  0
    7.0004   -0.0367    0.0000 C   0  0  0  0  0  0  0  0  0  0  0  0
    6.1880   -0.1800    0.0000 C   0  0  0  0  0  0  0  0  0  0  0  0
    5.6577    0.4520    0.0000 C   0  0  0  0  0  0  0  0  0  0  0  0
    5.9398    1.2272    0.0000 C   0  0  0  0  0  0  0  0  0  0  0  0
    5.4095    1.8592    0.0000 N   0  0  0  0  0  0  0  0  0  0  0  0
    4.5971    1.7160    0.0000 C   0  0  0  0  0  0  0  0  0  0  0  0
    4.3149    0.9407    0.0000 O   0  0  0  0  0  0  0  0  0  0  0  0
    4.0668    2.3479    0.0000 C   0  0  0  0  0  0  0  0  0  0  0  0
    3.7846    3.1232    0.0000 C   0  0  0  0  0  0  0  0  0  0  0  0
    4.5971    2.9799    0.0000 C   0  0  0  0  0  0  0  0  0  0  0  0
    3.3523    1.9354    0.0000 C   0  0  0  0  0  0  0  0  0  0  0  0
    3.3523    1.1104    0.0000 C   0  0  0  0  0  0  0  0  0  0  0  0
    2.6378    0.6979    0.0000 C   0  0  0  0  0  0  0  0  0  0  0  0
    1.9233    1.1104    0.0000 C   0  0  0  0  0  0  0  0  0  0  0  0
    1.1387    0.8555    0.0000 O   0  0  0  0  0  0  0  0  0  0  0  0
    0.6538    1.5229    0.0000 C   0  0  0  0  0  0  0  0  0  0  0  0
    0.0407    0.9709    0.0000 F   0  0  0  0  0  0  0  0  0  0  0  0
    0.0407    2.0750    0.0000 F   0  0  0  0  0  0  0  0  0  0  0  0
    1.1387    2.1904    0.0000 O   0  0  0  0  0  0  0  0  0  0  0  0
    1.9233    1.9354    0.0000 C   0  0  0  0  0  0  0  0  0  0  0  0
    2.6378    2.3479    0.0000 C   0  0  0  0  0  0  0  0  0  0  0  0
    6.7523    1.3705    0.0000 N   0  0  0  0  0  0  0  0  0  0  0  0
    7.2826    0.7385    0.0000 C   0  0  0  0  0  0  0  0  0  0  0  0
    8.0951    0.8818    0.0000 C   0  0  0  0  0  0  0  0  0  0  0  0
    8.3772    1.6570    0.0000 C   0  0  0  0  0  0  0  0  0  0  0  0
    9.1897    1.8003    0.0000 C   0  0  0  0  0  0  0  0  0  0  0  0
    9.7200    1.1683    0.0000 C   0  0  0  0  0  0  0  0  0  0  0  0
    9.4378    0.3930    0.0000 C   0  0  0  0  0  0  0  0  0  0  0  0
    8.6254    0.2498    0.0000 C   0  0  0  0  0  0  0  0  0  0  0  0
    9.9681   -0.2390    0.0000 C   0  0  0  0  0  0  0  0  0  0  0  0
   10.7806   -0.0957    0.0000 O   0  0  0  0  0  0  0  0  0  0  0  0
    9.6860   -1.0142    0.0000 O   0  0  0  0  0  0  0  0  0  0  0  0
  1  2  1  0  0  0  0
  2  3  4  0  0  0  0
  3  4  4  0  0  0  0
  4  5  4  0  0  0  0
  5  6  1  0  0  0  0
  6  7  1  0  0  0  0
  7  8  2  0  0  0  0
  7  9  1  0  0  0  0
  9 10  1  0  0  0  0
 10 11  1  0  0  0  0
  9 11  1  0  0  0  0
  9 12  1  0  0  0  0
 12 13  4  0  0  0  0
 13 14  4  0  0  0  0
 14 15  4  0  0  0  0
 15 16  1  0  0  0  0
 16 17  1  0  0  0  0
 17 18  1  0  0  0  0
 17 19  1  0  0  0  0
 17 20  1  0  0  0  0
 20 21  1  0  0  0  0
 15 21  4  0  0  0  0
 21 22  4  0  0  0  0
 12 22  4  0  0  0  0
  5 23  4  0  0  0  0
 23 24  4  0  0  0  0
  2 24  4  0  0  0  0
 24 25  1  0  0  0  0
 25 26  4  0  0  0  0
 26 27  4  0  0  0  0
 27 28  4  0  0  0  0
 28 29  4  0  0  0  0
 29 30  4  0  0  0  0
 25 30  4  0  0  0  0
 29 31  1  0  0  0  0
 31 32  1  0  0  0  0
 31 33  2  0  0  0  0
M  END
>  <ID>
5010

>  <PREFERRED_NAME>
lumacaftor

>  <CAS_RN>
936727-05-8

>  <SYNONYMS>
lumacaftor
VX-809
VRT-826809

>  <URL>
http://drugcentral.org/drugcard/5010/view

$$$$
