lumefantrine
  -INDIGO-06102311012D

 35 38  0  0  0  0  0  0  0  0999 V2000
   -3.7852   -2.8510    0.0000 C   0  0  0  0  0  0  0  0  0  0  0  0
   -3.5151   -3.6305    0.0000 C   0  0  0  0  0  0  0  0  0  0  0  0
   -2.7050   -3.7864    0.0000 C   0  0  0  0  0  0  0  0  0  0  0  0
   -2.4350   -4.5660    0.0000 C   0  0  0  0  0  0  0  0  0  0  0  0
   -1.6248   -4.7219    0.0000 N   0  0  0  0  0  0  0  0  0  0  0  0
   -1.0847   -4.0983    0.0000 C   0  0  0  0  0  0  0  0  0  0  0  0
   -0.2746   -4.2542    0.0000 C   0  0  0  0  0  0  0  0  0  0  0  0
    0.2655   -3.6305    0.0000 C   0  0  0  0  0  0  0  0  0  0  0  0
    1.0756   -3.7864    0.0000 C   0  0  0  0  0  0  0  0  0  0  0  0
   -1.3548   -5.5014    0.0000 C   0  0  0  0  0  0  0  0  0  0  0  0
   -0.5446   -5.6574    0.0000 C   0  0  0  0  0  0  0  0  0  0  0  0
   -0.0046   -5.0337    0.0000 O   0  0  0  0  0  0  0  0  0  0  0  0
   -0.2746   -6.4369    0.0000 C   0  0  0  0  0  0  0  0  0  0  0  0
   -0.8147   -7.0605    0.0000 C   0  0  0  0  0  0  0  0  0  0  0  0
   -0.5446   -7.8401    0.0000 C   0  0  0  0  0  0  0  0  0  0  0  0
   -1.0847   -8.4637    0.0000 Cl  0  0  0  0  0  0  0  0  0  0  0  0
    0.2655   -7.9960    0.0000 C   0  0  0  0  0  0  0  0  0  0  0  0
    0.8056   -7.3724    0.0000 C   0  0  0  0  0  0  0  0  0  0  0  0
    0.5355   -6.5928    0.0000 C   0  0  0  0  0  0  0  0  0  0  0  0
    1.1935   -6.0951    0.0000 C   0  0  0  0  0  0  0  0  0  0  0  0
    1.2639   -5.2731    0.0000 C   0  0  0  0  0  0  0  0  0  0  0  0
    2.0109   -4.9231    0.0000 C   0  0  0  0  0  0  0  0  0  0  0  0
    2.6876   -5.3950    0.0000 C   0  0  0  0  0  0  0  0  0  0  0  0
    3.4346   -5.0449    0.0000 Cl  0  0  0  0  0  0  0  0  0  0  0  0
    2.6172   -6.2170    0.0000 C   0  0  0  0  0  0  0  0  0  0  0  0
    1.8702   -6.5670    0.0000 C   0  0  0  0  0  0  0  0  0  0  0  0
    1.6304   -7.3564    0.0000 C   0  0  0  0  0  0  0  0  0  0  0  0
    2.1281   -8.0144    0.0000 C   0  0  0  0  0  0  0  0  0  0  0  0
    1.8072   -8.7744    0.0000 C   0  0  0  0  0  0  0  0  0  0  0  0
    2.3049   -9.4323    0.0000 C   0  0  0  0  0  0  0  0  0  0  0  0
    1.9840  -10.1924    0.0000 C   0  0  0  0  0  0  0  0  0  0  0  0
    1.1653  -10.2944    0.0000 C   0  0  0  0  0  0  0  0  0  0  0  0
    0.8444  -11.0544    0.0000 Cl  0  0  0  0  0  0  0  0  0  0  0  0
    0.6676   -9.6365    0.0000 C   0  0  0  0  0  0  0  0  0  0  0  0
    0.9885   -8.8765    0.0000 C   0  0  0  0  0  0  0  0  0  0  0  0
  1  2  1  0  0  0  0
  2  3  1  0  0  0  0
  3  4  1  0  0  0  0
  4  5  1  0  0  0  0
  5  6  1  0  0  0  0
  6  7  1  0  0  0  0
  7  8  1  0  0  0  0
  8  9  1  0  0  0  0
  5 10  1  0  0  0  0
 10 11  1  0  0  0  0
 11 12  1  0  0  0  0
 11 13  1  0  0  0  0
 13 14  4  0  0  0  0
 14 15  4  0  0  0  0
 15 16  1  0  0  0  0
 15 17  4  0  0  0  0
 17 18  4  0  0  0  0
 18 19  4  0  0  0  0
 13 19  4  0  0  0  0
 19 20  1  0  0  0  0
 20 21  4  0  0  0  0
 21 22  4  0  0  0  0
 22 23  4  0  0  0  0
 23 24  1  0  0  0  0
 23 25  4  0  0  0  0
 25 26  4  0  0  0  0
 20 26  4  0  0  0  0
 26 27  1  0  0  0  0
 18 27  1  0  0  0  0
 27 28  2  0  0  0  0
 28 29  1  0  0  0  0
 29 30  4  0  0  0  0
 30 31  4  0  0  0  0
 31 32  4  0  0  0  0
 32 33  1  0  0  0  0
 32 34  4  0  0  0  0
 34 35  4  0  0  0  0
 29 35  4  0  0  0  0
M  END
>  <ID>
1617

>  <PREFERRED_NAME>
lumefantrine

>  <CAS_RN>
82186-77-4

>  <SYNONYMS>
lumefantrine
benflumelol
benflumetol

>  <URL>
http://drugcentral.org/drugcard/1617/view

$$$$
