lurasidone
  -INDIGO-06102311112D

 35 41  0  0  1  0  0  0  0  0999 V2000
   -5.8693    6.6455    0.0000 O   0  0  0  0  0  0  0  0  0  0  0  0
   -5.4568    5.9310    0.0000 C   0  0  0  0  0  0  0  0  0  0  0  0
   -5.7924    5.1774    0.0000 C   0  0  1  0  0  0  0  0  0  0  0  0
   -6.5770    4.9224    0.0000 C   0  0  2  0  0  0  0  0  0  0  0  0
   -6.7486    4.1154    0.0000 C   0  0  0  0  0  0  0  0  0  0  0  0
   -6.1355    3.5634    0.0000 C   0  0  0  0  0  0  0  0  0  0  0  0
   -5.3508    3.8183    0.0000 C   0  0  1  0  0  0  0  0  0  0  0  0
   -5.8259    4.5237    0.0000 C   0  0  0  0  0  0  0  0  0  0  0  0
   -5.1793    4.6253    0.0000 C   0  0  1  0  0  0  0  0  0  0  0  0
   -4.4648    5.0378    0.0000 C   0  0  0  0  0  0  0  0  0  0  0  0
   -3.7112    4.7023    0.0000 O   0  0  0  0  0  0  0  0  0  0  0  0
   -4.6364    5.8448    0.0000 N   0  0  0  0  0  0  0  0  0  0  0  0
   -4.0843    6.4579    0.0000 C   0  0  0  0  0  0  0  0  0  0  0  0
   -4.3393    7.2425    0.0000 C   0  0  2  0  0  0  0  0  0  0  0  0
   -5.1462    7.4140    0.0000 C   0  0  0  0  0  0  0  0  0  0  0  0
   -5.4012    8.1987    0.0000 C   0  0  0  0  0  0  0  0  0  0  0  0
   -4.8492    8.8118    0.0000 C   0  0  0  0  0  0  0  0  0  0  0  0
   -4.0422    8.6402    0.0000 C   0  0  0  0  0  0  0  0  0  0  0  0
   -3.7872    7.8556    0.0000 C   0  0  1  0  0  0  0  0  0  0  0  0
   -2.9803    7.6841    0.0000 C   0  0  0  0  0  0  0  0  0  0  0  0
   -2.7253    6.8995    0.0000 N   0  0  0  0  0  0  0  0  0  0  0  0
   -1.9184    6.7279    0.0000 C   0  0  0  0  0  0  0  0  0  0  0  0
   -1.6634    5.9433    0.0000 C   0  0  0  0  0  0  0  0  0  0  0  0
   -2.2155    5.3302    0.0000 N   0  0  0  0  0  0  0  0  0  0  0  0
   -3.0224    5.5017    0.0000 C   0  0  0  0  0  0  0  0  0  0  0  0
   -3.2774    6.2864    0.0000 C   0  0  0  0  0  0  0  0  0  0  0  0
   -1.9605    4.5456    0.0000 C   0  0  0  0  0  0  0  0  0  0  0  0
   -2.4454    3.8781    0.0000 N   0  0  0  0  0  0  0  0  0  0  0  0
   -1.9605    3.2107    0.0000 S   0  0  0  0  0  0  0  0  0  0  0  0
   -1.1759    3.4656    0.0000 C   0  0  0  0  0  0  0  0  0  0  0  0
   -1.1759    4.2906    0.0000 C   0  0  0  0  0  0  0  0  0  0  0  0
   -0.4614    4.7031    0.0000 C   0  0  0  0  0  0  0  0  0  0  0  0
    0.2530    4.2906    0.0000 C   0  0  0  0  0  0  0  0  0  0  0  0
    0.2530    3.4656    0.0000 C   0  0  0  0  0  0  0  0  0  0  0  0
   -0.4614    3.0531    0.0000 C   0  0  0  0  0  0  0  0  0  0  0  0
  1  2  2  0  0  0  0
  3  2  1  6  0  0  0
  3  4  1  0  0  0  0
  4  5  1  0  0  0  0
  5  6  1  0  0  0  0
  6  7  1  0  0  0  0
  7  8  1  6  0  0  0
  4  8  1  6  0  0  0
  7  9  1  0  0  0  0
  3  9  1  0  0  0  0
  9 10  1  6  0  0  0
 10 11  2  0  0  0  0
 10 12  1  0  0  0  0
  2 12  1  0  0  0  0
 12 13  1  0  0  0  0
 14 13  1  6  0  0  0
 14 15  1  0  0  0  0
 15 16  1  0  0  0  0
 16 17  1  0  0  0  0
 17 18  1  0  0  0  0
 18 19  1  0  0  0  0
 14 19  1  0  0  0  0
 19 20  1  1  0  0  0
 20 21  1  0  0  0  0
 21 22  1  0  0  0  0
 22 23  1  0  0  0  0
 23 24  1  0  0  0  0
 24 25  1  0  0  0  0
 25 26  1  0  0  0  0
 21 26  1  0  0  0  0
 24 27  1  0  0  0  0
 27 28  4  0  0  0  0
 28 29  4  0  0  0  0
 29 30  4  0  0  0  0
 30 31  4  0  0  0  0
 27 31  4  0  0  0  0
 31 32  4  0  0  0  0
 32 33  4  0  0  0  0
 33 34  4  0  0  0  0
 34 35  4  0  0  0  0
 30 35  4  0  0  0  0
M  END
>  <ID>
4168

>  <PREFERRED_NAME>
lurasidone

>  <CAS_RN>
367514-87-2

>  <SYNONYMS>
lurasidone
SM-13496
latuda
lurasidone hydrochloride
lurasidone HCl

>  <URL>
http://drugcentral.org/drugcard/4168/view

$$$$
