lusutrombopag
  -INDIGO-06102311182D

 39 41  0  0  1  0  0  0  0  0999 V2000
    6.4023   -7.3346    0.0000 C   0  0  0  0  0  0  0  0  0  0  0  0
    7.2124   -7.4905    0.0000 C   0  0  0  0  0  0  0  0  0  0  0  0
    7.7525   -6.8668    0.0000 C   0  0  0  0  0  0  0  0  0  0  0  0
    8.5626   -7.0227    0.0000 C   0  0  0  0  0  0  0  0  0  0  0  0
    9.1027   -6.3991    0.0000 C   0  0  0  0  0  0  0  0  0  0  0  0
    9.9129   -6.5550    0.0000 C   0  0  0  0  0  0  0  0  0  0  0  0
   10.1829   -7.3346    0.0000 O   0  0  0  0  0  0  0  0  0  0  0  0
   10.9930   -7.4905    0.0000 C   0  0  1  0  0  0  0  0  0  0  0  0
   11.2631   -8.2700    0.0000 C   0  0  0  0  0  0  0  0  0  0  0  0
   11.5331   -6.8668    0.0000 C   0  0  0  0  0  0  0  0  0  0  0  0
   11.2631   -6.0873    0.0000 C   0  0  0  0  0  0  0  0  0  0  0  0
   11.8032   -5.4636    0.0000 C   0  0  0  0  0  0  0  0  0  0  0  0
   12.6133   -5.6195    0.0000 C   0  0  0  0  0  0  0  0  0  0  0  0
   12.8834   -6.3991    0.0000 C   0  0  0  0  0  0  0  0  0  0  0  0
   13.6935   -6.5550    0.0000 C   0  0  0  0  0  0  0  0  0  0  0  0
   14.2958   -5.9912    0.0000 C   0  0  0  0  0  0  0  0  0  0  0  0
   15.0181   -6.3899    0.0000 S   0  0  0  0  0  0  0  0  0  0  0  0
   14.8622   -7.2000    0.0000 C   0  0  0  0  0  0  0  0  0  0  0  0
   15.4260   -7.8023    0.0000 N   0  0  0  0  0  0  0  0  0  0  0  0
   16.2295   -7.6152    0.0000 C   0  0  0  0  0  0  0  0  0  0  0  0
   16.4692   -6.8258    0.0000 O   0  0  0  0  0  0  0  0  0  0  0  0
   16.7933   -8.2176    0.0000 C   0  0  0  0  0  0  0  0  0  0  0  0
   17.5968   -8.0305    0.0000 C   0  0  0  0  0  0  0  0  0  0  0  0
   18.1605   -8.6328    0.0000 C   0  0  0  0  0  0  0  0  0  0  0  0
   18.9640   -8.4457    0.0000 Cl  0  0  0  0  0  0  0  0  0  0  0  0
   17.9208   -9.4222    0.0000 C   0  0  0  0  0  0  0  0  0  0  0  0
   18.4846  -10.0245    0.0000 C   0  0  0  0  0  0  0  0  0  0  0  0
   18.2448  -10.8139    0.0000 C   0  0  0  0  0  0  0  0  0  0  0  0
   17.4413  -11.0010    0.0000 C   0  0  0  0  0  0  0  0  0  0  0  0
   18.8086  -11.4162    0.0000 C   0  0  0  0  0  0  0  0  0  0  0  0
   19.6121  -11.2291    0.0000 O   0  0  0  0  0  0  0  0  0  0  0  0
   18.5689  -12.2056    0.0000 O   0  0  0  0  0  0  0  0  0  0  0  0
   17.1173   -9.6093    0.0000 C   0  0  0  0  0  0  0  0  0  0  0  0
   16.8775  -10.3987    0.0000 Cl  0  0  0  0  0  0  0  0  0  0  0  0
   16.5535   -9.0070    0.0000 C   0  0  0  0  0  0  0  0  0  0  0  0
   14.0435   -7.3021    0.0000 N   0  0  0  0  0  0  0  0  0  0  0  0
   12.3433   -7.0227    0.0000 C   0  0  0  0  0  0  0  0  0  0  0  0
   12.6133   -7.8023    0.0000 O   0  0  0  0  0  0  0  0  0  0  0  0
   12.0732   -8.4259    0.0000 C   0  0  0  0  0  0  0  0  0  0  0  0
  1  2  1  0  0  0  0
  2  3  1  0  0  0  0
  3  4  1  0  0  0  0
  4  5  1  0  0  0  0
  5  6  1  0  0  0  0
  6  7  1  0  0  0  0
  7  8  1  0  0  0  0
  8  9  1  6  0  0  0
  8 10  1  0  0  0  0
 10 11  4  0  0  0  0
 11 12  4  0  0  0  0
 12 13  4  0  0  0  0
 13 14  4  0  0  0  0
 14 15  1  0  0  0  0
 15 16  4  0  0  0  0
 16 17  4  0  0  0  0
 17 18  4  0  0  0  0
 18 19  1  0  0  0  0
 19 20  1  0  0  0  0
 20 21  2  0  0  0  0
 20 22  1  0  0  0  0
 22 23  4  0  0  0  0
 23 24  4  0  0  0  0
 24 25  1  0  0  0  0
 24 26  4  0  0  0  0
 26 27  1  0  0  0  0
 27 28  2  0  0  0  0
 28 29  1  0  0  0  0
 28 30  1  0  0  0  0
 30 31  1  0  0  0  0
 30 32  2  0  0  0  0
 26 33  4  0  0  0  0
 33 34  1  0  0  0  0
 33 35  4  0  0  0  0
 22 35  4  0  0  0  0
 18 36  4  0  0  0  0
 15 36  4  0  0  0  0
 14 37  4  0  0  0  0
 10 37  4  0  0  0  0
 37 38  1  0  0  0  0
 38 39  1  0  0  0  0
M  END
>  <ID>
5059

>  <PREFERRED_NAME>
lusutrombopag

>  <CAS_RN>
1110766-97-6

>  <SYNONYMS>
lusutrombopag
S-888711
S 888711
mulpleta

>  <URL>
http://drugcentral.org/drugcard/5059/view

$$$$
