lypressin
  -INDIGO-06102311072D

 73 76  0  0  1  0  0  0  0  0999 V2000
   -5.3331   -4.7408    0.0000 N   0  0  0  0  0  0  0  0  0  0  0  0
   -4.5081   -4.7408    0.0000 C   0  0  0  0  0  0  0  0  0  0  0  0
   -4.0956   -4.0263    0.0000 C   0  0  0  0  0  0  0  0  0  0  0  0
   -3.2706   -4.0263    0.0000 C   0  0  0  0  0  0  0  0  0  0  0  0
   -2.8581   -3.3118    0.0000 C   0  0  0  0  0  0  0  0  0  0  0  0
   -2.0331   -3.3118    0.0000 C   0  0  2  0  0  0  0  0  0  0  0  0
   -1.6206   -2.5973    0.0000 N   0  0  0  0  0  0  0  0  0  0  0  0
   -0.7956   -2.5973    0.0000 C   0  0  0  0  0  0  0  0  0  0  0  0
   -0.3831   -3.3118    0.0000 O   0  0  0  0  0  0  0  0  0  0  0  0
   -0.3831   -1.8829    0.0000 C   0  0  2  0  0  0  0  0  0  0  0  0
   -0.7187   -1.1292    0.0000 C   0  0  0  0  0  0  0  0  0  0  0  0
   -0.1056   -0.5772    0.0000 C   0  0  0  0  0  0  0  0  0  0  0  0
    0.6089   -0.9897    0.0000 C   0  0  0  0  0  0  0  0  0  0  0  0
    0.4374   -1.7966    0.0000 N   0  0  0  0  0  0  0  0  0  0  0  0
    0.9894   -2.4097    0.0000 C   0  0  0  0  0  0  0  0  0  0  0  0
    0.7345   -3.1944    0.0000 O   0  0  0  0  0  0  0  0  0  0  0  0
    1.7964   -2.2382    0.0000 C   0  0  2  0  0  0  0  0  0  0  0  0
    1.2443   -1.6251    0.0000 C   0  0  0  0  0  0  0  0  0  0  0  0
    1.4993   -0.8405    0.0000 S   0  0  0  0  0  0  0  0  0  0  0  0
    2.3062   -0.6690    0.0000 S   0  0  0  0  0  0  0  0  0  0  0  0
    2.8583   -1.2821    0.0000 C   0  0  0  0  0  0  0  0  0  0  0  0
    3.6652   -1.1105    0.0000 C   0  0  2  0  0  0  0  0  0  0  0  0
    3.4103   -0.3259    0.0000 N   0  0  0  0  0  0  0  0  0  0  0  0
    4.2173   -1.7236    0.0000 C   0  0  0  0  0  0  0  0  0  0  0  0
    3.9623   -2.5082    0.0000 O   0  0  0  0  0  0  0  0  0  0  0  0
    5.0243   -1.5521    0.0000 N   0  0  0  0  0  0  0  0  0  0  0  0
    5.5763   -2.1652    0.0000 C   0  0  1  0  0  0  0  0  0  0  0  0
    5.8312   -1.3806    0.0000 C   0  0  0  0  0  0  0  0  0  0  0  0
    5.2792   -0.7675    0.0000 C   0  0  0  0  0  0  0  0  0  0  0  0
    4.4722   -0.9390    0.0000 C   0  0  0  0  0  0  0  0  0  0  0  0
    3.9202   -0.3259    0.0000 C   0  0  0  0  0  0  0  0  0  0  0  0
    4.1751    0.4587    0.0000 C   0  0  0  0  0  0  0  0  0  0  0  0
    3.6231    1.0718    0.0000 O   0  0  0  0  0  0  0  0  0  0  0  0
    4.9821    0.6302    0.0000 C   0  0  0  0  0  0  0  0  0  0  0  0
    5.5341    0.0171    0.0000 C   0  0  0  0  0  0  0  0  0  0  0  0
    6.3833   -1.9937    0.0000 C   0  0  0  0  0  0  0  0  0  0  0  0
    6.6382   -1.2090    0.0000 O   0  0  0  0  0  0  0  0  0  0  0  0
    6.9353   -2.6068    0.0000 N   0  0  0  0  0  0  0  0  0  0  0  0
    6.6804   -3.3914    0.0000 C   0  0  1  0  0  0  0  0  0  0  0  0
    7.2324   -4.0045    0.0000 C   0  0  0  0  0  0  0  0  0  0  0  0
    8.0394   -3.8330    0.0000 C   0  0  0  0  0  0  0  0  0  0  0  0
    8.2943   -3.0483    0.0000 C   0  0  0  0  0  0  0  0  0  0  0  0
    9.1013   -2.8768    0.0000 C   0  0  0  0  0  0  0  0  0  0  0  0
    9.6533   -3.4899    0.0000 C   0  0  0  0  0  0  0  0  0  0  0  0
    9.3984   -4.2745    0.0000 C   0  0  0  0  0  0  0  0  0  0  0  0
    8.5914   -4.4460    0.0000 C   0  0  0  0  0  0  0  0  0  0  0  0
    5.8734   -3.5629    0.0000 C   0  0  0  0  0  0  0  0  0  0  0  0
    5.3213   -2.9498    0.0000 O   0  0  0  0  0  0  0  0  0  0  0  0
    5.6184   -4.3475    0.0000 N   0  0  0  0  0  0  0  0  0  0  0  0
    4.8115   -4.5191    0.0000 C   0  0  1  0  0  0  0  0  0  0  0  0
    4.5565   -5.3037    0.0000 C   0  0  0  0  0  0  0  0  0  0  0  0
    5.1086   -5.9168    0.0000 C   0  0  0  0  0  0  0  0  0  0  0  0
    4.8536   -6.7014    0.0000 C   0  0  0  0  0  0  0  0  0  0  0  0
    4.0467   -6.8729    0.0000 N   0  0  0  0  0  0  0  0  0  0  0  0
    5.4057   -7.3145    0.0000 O   0  0  0  0  0  0  0  0  0  0  0  0
    4.2594   -3.9060    0.0000 C   0  0  0  0  0  0  0  0  0  0  0  0
    4.5144   -3.1213    0.0000 O   0  0  0  0  0  0  0  0  0  0  0  0
    3.4525   -4.0775    0.0000 N   0  0  0  0  0  0  0  0  0  0  0  0
    2.9004   -3.4644    0.0000 C   0  0  1  0  0  0  0  0  0  0  0  0
    2.6455   -4.2490    0.0000 C   0  0  0  0  0  0  0  0  0  0  0  0
    3.1975   -4.8621    0.0000 C   0  0  0  0  0  0  0  0  0  0  0  0
    4.0045   -4.6906    0.0000 N   0  0  0  0  0  0  0  0  0  0  0  0
    2.9426   -5.6467    0.0000 O   0  0  0  0  0  0  0  0  0  0  0  0
    2.0935   -3.6359    0.0000 C   0  0  0  0  0  0  0  0  0  0  0  0
    1.8385   -4.4205    0.0000 O   0  0  0  0  0  0  0  0  0  0  0  0
    1.5414   -3.0228    0.0000 N   0  0  0  0  0  0  0  0  0  0  0  0
   -1.6206   -4.0263    0.0000 C   0  0  0  0  0  0  0  0  0  0  0  0
   -2.0331   -4.7408    0.0000 O   0  0  0  0  0  0  0  0  0  0  0  0
   -0.7956   -4.0263    0.0000 N   0  0  0  0  0  0  0  0  0  0  0  0
   -0.3831   -4.7408    0.0000 C   0  0  0  0  0  0  0  0  0  0  0  0
    0.4419   -4.7408    0.0000 C   0  0  0  0  0  0  0  0  0  0  0  0
    0.8544   -4.0263    0.0000 N   0  0  0  0  0  0  0  0  0  0  0  0
    0.8544   -5.4552    0.0000 O   0  0  0  0  0  0  0  0  0  0  0  0
  1  2  1  0  0  0  0
  2  3  1  0  0  0  0
  3  4  1  0  0  0  0
  4  5  1  0  0  0  0
  5  6  1  0  0  0  0
  6  7  1  6  0  0  0
  7  8  1  0  0  0  0
  8  9  2  0  0  0  0
 10  8  1  6  0  0  0
 10 11  1  0  0  0  0
 11 12  1  0  0  0  0
 12 13  1  0  0  0  0
 13 14  1  0  0  0  0
 10 14  1  0  0  0  0
 14 15  1  0  0  0  0
 15 16  2  0  0  0  0
 17 15  1  1  0  0  0
 17 18  1  0  0  0  0
 18 19  1  0  0  0  0
 19 20  1  0  0  0  0
 20 21  1  0  0  0  0
 21 22  1  0  0  0  0
 22 23  1  6  0  0  0
 22 24  1  0  0  0  0
 24 25  2  0  0  0  0
 24 26  1  0  0  0  0
 26 27  1  0  0  0  0
 27 28  1  6  0  0  0
 28 29  1  0  0  0  0
 29 30  4  0  0  0  0
 30 31  4  0  0  0  0
 31 32  4  0  0  0  0
 32 33  1  0  0  0  0
 32 34  4  0  0  0  0
 34 35  4  0  0  0  0
 29 35  4  0  0  0  0
 27 36  1  0  0  0  0
 36 37  2  0  0  0  0
 36 38  1  0  0  0  0
 38 39  1  0  0  0  0
 39 40  1  1  0  0  0
 40 41  1  0  0  0  0
 41 42  4  0  0  0  0
 42 43  4  0  0  0  0
 43 44  4  0  0  0  0
 44 45  4  0  0  0  0
 45 46  4  0  0  0  0
 41 46  4  0  0  0  0
 39 47  1  0  0  0  0
 47 48  2  0  0  0  0
 47 49  1  0  0  0  0
 49 50  1  0  0  0  0
 50 51  1  1  0  0  0
 51 52  1  0  0  0  0
 52 53  1  0  0  0  0
 53 54  1  0  0  0  0
 53 55  2  0  0  0  0
 50 56  1  0  0  0  0
 56 57  2  0  0  0  0
 56 58  1  0  0  0  0
 58 59  1  0  0  0  0
 59 60  1  6  0  0  0
 60 61  1  0  0  0  0
 61 62  1  0  0  0  0
 61 63  2  0  0  0  0
 59 64  1  0  0  0  0
 64 65  2  0  0  0  0
 64 66  1  0  0  0  0
 17 66  1  0  0  0  0
  6 67  1  0  0  0  0
 67 68  2  0  0  0  0
 67 69  1  0  0  0  0
 69 70  1  0  0  0  0
 70 71  1  0  0  0  0
 71 72  1  0  0  0  0
 71 73  2  0  0  0  0
M  END
>  <ID>
2959

>  <PREFERRED_NAME>
lypressin

>  <CAS_RN>
50-57-7

>  <SYNONYMS>
lypressin
lysine pitressin
lysine vasopressin
lysipressin
lysopressin
lysylvasopressin
syntopressin

>  <URL>
http://drugcentral.org/drugcard/2959/view

$$$$
