magnesium peroxide
  -INDIGO-06102311132D

  3  3  0  0  0  0  0  0  0  0999 V2000
    0.2382    0.8888    0.0000 O   0  0  0  0  0  0  0  0  0  0  0  0
    0.6507    0.1743    0.0000 O   0  0  0  0  0  0  0  0  0  0  0  0
   -0.1743    0.1743    0.0000 Mg  0  0  0  0  0  0  0  0  0  0  0  0
  1  2  1  0  0  0  0
  2  3  1  0  0  0  0
  1  3  1  0  0  0  0
M  END
>  <ID>
4595

>  <PREFERRED_NAME>
magnesium peroxide

>  <CAS_RN>
14452-57-4

>  <SYNONYMS>
magnesium peroxide
magnesium perhydrol

>  <URL>
http://drugcentral.org/drugcard/4595/view

$$$$
