maraviroc
  -INDIGO-06102311012D

 37 41  0  0  1  0  0  0  0  0999 V2000
    4.3950    2.7015    0.0000 C   0  0  0  0  0  0  0  0  0  0  0  0
    3.8430    2.0884    0.0000 C   0  0  0  0  0  0  0  0  0  0  0  0
    3.0360    2.2599    0.0000 C   0  0  0  0  0  0  0  0  0  0  0  0
    4.0979    1.3038    0.0000 C   0  0  0  0  0  0  0  0  0  0  0  0
    4.8825    1.0488    0.0000 N   0  0  0  0  0  0  0  0  0  0  0  0
    4.8825    0.2238    0.0000 N   0  0  0  0  0  0  0  0  0  0  0  0
    4.0979   -0.0311    0.0000 C   0  0  0  0  0  0  0  0  0  0  0  0
    3.8430   -0.8157    0.0000 C   0  0  0  0  0  0  0  0  0  0  0  0
    3.6130    0.6363    0.0000 N   0  0  0  0  0  0  0  0  0  0  0  0
    2.7880    0.6363    0.0000 C   0  0  2  0  0  0  0  0  0  0  0  0
    2.4300    1.3796    0.0000 C   0  0  0  0  0  0  0  0  0  0  0  0
    1.6257    1.5632    0.0000 C   0  0  2  0  0  0  0  0  0  0  0  0
    0.9807    1.0488    0.0000 C   0  0  0  0  0  0  0  0  0  0  0  0
    0.9807    0.2238    0.0000 C   0  0  0  0  0  0  0  0  0  0  0  0
    1.6257   -0.2905    0.0000 C   0  0  2  0  0  0  0  0  0  0  0  0
    2.4300   -0.1070    0.0000 C   0  0  0  0  0  0  0  0  0  0  0  0
    1.3940    0.6363    0.0000 N   0  0  0  0  0  0  0  0  0  0  0  0
    0.5690    0.6363    0.0000 C   0  0  0  0  0  0  0  0  0  0  0  0
    0.1565    1.3508    0.0000 C   0  0  0  0  0  0  0  0  0  0  0  0
   -0.6685    1.3508    0.0000 C   0  0  2  0  0  0  0  0  0  0  0  0
   -1.0810    2.0653    0.0000 N   0  0  0  0  0  0  0  0  0  0  0  0
   -1.9060    2.0653    0.0000 C   0  0  0  0  0  0  0  0  0  0  0  0
   -2.3185    1.3508    0.0000 O   0  0  0  0  0  0  0  0  0  0  0  0
   -2.3185    2.7798    0.0000 C   0  0  0  0  0  0  0  0  0  0  0  0
   -3.1435    2.7798    0.0000 C   0  0  0  0  0  0  0  0  0  0  0  0
   -3.5560    3.4942    0.0000 C   0  0  0  0  0  0  0  0  0  0  0  0
   -3.1435    4.2087    0.0000 C   0  0  0  0  0  0  0  0  0  0  0  0
   -3.9187    4.4909    0.0000 F   0  0  0  0  0  0  0  0  0  0  0  0
   -3.0002    5.0212    0.0000 F   0  0  0  0  0  0  0  0  0  0  0  0
   -2.3185    4.2087    0.0000 C   0  0  0  0  0  0  0  0  0  0  0  0
   -1.9060    3.4942    0.0000 C   0  0  0  0  0  0  0  0  0  0  0  0
   -1.0810    0.6363    0.0000 C   0  0  0  0  0  0  0  0  0  0  0  0
   -0.6685   -0.0781    0.0000 C   0  0  0  0  0  0  0  0  0  0  0  0
   -1.0810   -0.7926    0.0000 C   0  0  0  0  0  0  0  0  0  0  0  0
   -1.9060   -0.7926    0.0000 C   0  0  0  0  0  0  0  0  0  0  0  0
   -2.3185   -0.0781    0.0000 C   0  0  0  0  0  0  0  0  0  0  0  0
   -1.9060    0.6363    0.0000 C   0  0  0  0  0  0  0  0  0  0  0  0
  1  2  1  0  0  0  0
  2  3  1  0  0  0  0
  2  4  1  0  0  0  0
  4  5  4  0  0  0  0
  5  6  4  0  0  0  0
  6  7  4  0  0  0  0
  7  8  1  0  0  0  0
  7  9  4  0  0  0  0
  4  9  4  0  0  0  0
 10  9  1  1  0  0  0
 10 11  1  0  0  0  0
 11 12  1  0  0  0  0
 12 13  1  0  0  0  0
 13 14  1  0  0  0  0
 14 15  1  0  0  0  0
 15 16  1  0  0  0  0
 10 16  1  0  0  0  0
 15 17  1  6  0  0  0
 12 17  1  6  0  0  0
 17 18  1  0  0  0  0
 18 19  1  0  0  0  0
 19 20  1  0  0  0  0
 20 21  1  1  0  0  0
 21 22  1  0  0  0  0
 22 23  2  0  0  0  0
 22 24  1  0  0  0  0
 24 25  1  0  0  0  0
 25 26  1  0  0  0  0
 26 27  1  0  0  0  0
 27 28  1  0  0  0  0
 27 29  1  0  0  0  0
 27 30  1  0  0  0  0
 30 31  1  0  0  0  0
 24 31  1  0  0  0  0
 20 32  1  0  0  0  0
 32 33  4  0  0  0  0
 33 34  4  0  0  0  0
 34 35  4  0  0  0  0
 35 36  4  0  0  0  0
 36 37  4  0  0  0  0
 32 37  4  0  0  0  0
M  END
>  <ID>
1635

>  <PREFERRED_NAME>
maraviroc

>  <CAS_RN>
376348-65-1

>  <SYNONYMS>
maraviroc
MD6P741W8A
UK-427857
maravirok
marawirok
celsentri
selzentry

>  <URL>
http://drugcentral.org/drugcard/1635/view

$$$$
