maralixibat hydrochloride
  -INDIGO-06102311222D

 48 53  0  0  1  0  0  0  0  0999 V2000
    3.2267   -6.9748    0.0000 C   0  0  0  0  0  0  0  0  0  0  0  0
    3.2884   -6.1521    0.0000 C   0  0  0  0  0  0  0  0  0  0  0  0
    4.0317   -5.7942    0.0000 C   0  0  0  0  0  0  0  0  0  0  0  0
    4.0933   -4.9715    0.0000 C   0  0  0  0  0  0  0  0  0  0  0  0
    3.4117   -4.5068    0.0000 C   0  0  0  0  0  0  0  0  0  0  0  0
    2.5959   -4.3838    0.0000 C   0  0  0  0  0  0  0  0  0  0  0  0
    2.1834   -3.6693    0.0000 S   0  0  0  0  0  0  0  0  0  0  0  0
    1.5786   -4.2305    0.0000 O   0  0  0  0  0  0  0  0  0  0  0  0
    1.5017   -3.2046    0.0000 O   0  0  0  0  0  0  0  0  0  0  0  0
    2.4848   -2.9014    0.0000 C   0  0  0  0  0  0  0  0  0  0  0  0
    3.2731   -2.6582    0.0000 C   0  0  0  0  0  0  0  0  0  0  0  0
    3.4567   -1.8539    0.0000 C   0  0  0  0  0  0  0  0  0  0  0  0
    2.8519   -1.2927    0.0000 C   0  0  0  0  0  0  0  0  0  0  0  0
    2.0636   -1.5359    0.0000 C   0  0  0  0  0  0  0  0  0  0  0  0
    1.8800   -2.3402    0.0000 C   0  0  0  0  0  0  0  0  0  0  0  0
    3.0355   -0.4884    0.0000 N   0  0  0  0  0  0  0  0  0  0  0  0
    2.4308    0.0727    0.0000 C   0  0  0  0  0  0  0  0  0  0  0  0
    3.8239   -0.2452    0.0000 C   0  0  0  0  0  0  0  0  0  0  0  0
    3.9548   -3.1229    0.0000 C   0  0  2  0  0  0  0  0  0  0  0  0
    4.0164   -3.9456    0.0000 C   0  0  1  0  0  0  0  0  0  0  0  0
    4.7844   -4.2470    0.0000 O   0  0  0  0  0  0  0  0  0  0  0  0
    4.6693   -2.7104    0.0000 C   0  0  0  0  0  0  0  0  0  0  0  0
    4.6693   -1.8854    0.0000 C   0  0  0  0  0  0  0  0  0  0  0  0
    5.3837   -1.4729    0.0000 C   0  0  0  0  0  0  0  0  0  0  0  0
    6.0982   -1.8854    0.0000 C   0  0  0  0  0  0  0  0  0  0  0  0
    6.0982   -2.7104    0.0000 C   0  0  0  0  0  0  0  0  0  0  0  0
    5.3837   -3.1229    0.0000 C   0  0  0  0  0  0  0  0  0  0  0  0
    6.8127   -1.4729    0.0000 O   0  0  0  0  0  0  0  0  0  0  0  0
    6.8127   -0.6479    0.0000 C   0  0  0  0  0  0  0  0  0  0  0  0
    7.5271   -0.2354    0.0000 C   0  0  0  0  0  0  0  0  0  0  0  0
    7.5271    0.5896    0.0000 C   0  0  0  0  0  0  0  0  0  0  0  0
    8.2416    1.0021    0.0000 C   0  0  0  0  0  0  0  0  0  0  0  0
    8.9561    0.5896    0.0000 C   0  0  0  0  0  0  0  0  0  0  0  0
    8.9561   -0.2354    0.0000 C   0  0  0  0  0  0  0  0  0  0  0  0
    8.2416   -0.6479    0.0000 C   0  0  0  0  0  0  0  0  0  0  0  0
    9.6705    1.0021    0.0000 C   0  0  0  0  0  0  0  0  0  0  0  0
    9.6705    1.8271    0.0000 N   0  0  0  0  0  0  0  0  0  0  0  0
    8.9561    2.2396    0.0000 C   0  0  0  0  0  0  0  0  0  0  0  0
    8.9561    3.0646    0.0000 C   0  0  0  0  0  0  0  0  0  0  0  0
    9.6705    3.4771    0.0000 N   0  0  0  0  0  0  0  0  0  0  0  0
   10.3850    3.0646    0.0000 C   0  0  0  0  0  0  0  0  0  0  0  0
   10.3850    2.2396    0.0000 C   0  0  0  0  0  0  0  0  0  0  0  0
    9.8080    2.9271    0.0000 C   0  0  0  0  0  0  0  0  0  0  0  0
    9.8080    2.3771    0.0000 C   0  0  0  0  0  0  0  0  0  0  0  0
    3.1103   -5.2747    0.0000 C   0  0  0  0  0  0  0  0  0  0  0  0
    2.2945   -5.3977    0.0000 C   0  0  0  0  0  0  0  0  0  0  0  0
    1.9931   -6.1657    0.0000 C   0  0  0  0  0  0  0  0  0  0  0  0
    1.1773   -6.2886    0.0000 C   0  0  0  0  0  0  0  0  0  0  0  0
  1  2  1  0  0  0  0
  2  3  1  0  0  0  0
  3  4  1  0  0  0  0
  4  5  1  0  0  0  0
  5  6  1  0  0  0  0
  6  7  1  0  0  0  0
  7  8  2  0  0  0  0
  7  9  2  0  0  0  0
  7 10  1  0  0  0  0
 10 11  4  0  0  0  0
 11 12  4  0  0  0  0
 12 13  4  0  0  0  0
 13 14  4  0  0  0  0
 14 15  4  0  0  0  0
 10 15  4  0  0  0  0
 13 16  1  0  0  0  0
 16 17  1  0  0  0  0
 16 18  1  0  0  0  0
 11 19  1  0  0  0  0
 19 20  1  0  0  0  0
  5 20  1  0  0  0  0
 20 21  1  1  0  0  0
 19 22  1  1  0  0  0
 22 23  4  0  0  0  0
 23 24  4  0  0  0  0
 24 25  4  0  0  0  0
 25 26  4  0  0  0  0
 26 27  4  0  0  0  0
 22 27  4  0  0  0  0
 25 28  1  0  0  0  0
 28 29  1  0  0  0  0
 29 30  1  0  0  0  0
 30 31  4  0  0  0  0
 31 32  4  0  0  0  0
 32 33  4  0  0  0  0
 33 34  4  0  0  0  0
 34 35  4  0  0  0  0
 30 35  4  0  0  0  0
 33 36  1  0  0  0  0
 36 37  1  0  0  0  0
 37 38  1  0  0  0  0
 38 39  1  0  0  0  0
 39 40  1  0  0  0  0
 40 41  1  0  0  0  0
 41 42  1  0  0  0  0
 37 42  1  0  0  0  0
 40 43  1  0  0  0  0
 43 44  1  0  0  0  0
 37 44  1  0  0  0  0
  5 45  1  0  0  0  0
 45 46  1  0  0  0  0
 46 47  1  0  0  0  0
 47 48  1  0  0  0  0
M  CHG  1  37   1
M  END
>  <ID>
5473

>  <PREFERRED_NAME>
maralixibat hydrochloride

>  <CAS_RN>
716313-53-0

>  <SYNONYMS>
maralixibat hydrochloride
maralixibat
livmarli
LUM001
maralixibat chloride

>  <URL>
http://drugcentral.org/drugcard/5473/view

$$$$
