mefruside
  -INDIGO-06102311012D

 23 24  0  0  0  0  0  0  0  0999 V2000
    1.3887   -1.5505    0.0000 C   0  0  0  0  0  0  0  0  0  0  0  0
    2.1956   -1.7220    0.0000 N   0  0  0  0  0  0  0  0  0  0  0  0
    2.4506   -2.5066    0.0000 C   0  0  0  0  0  0  0  0  0  0  0  0
    1.8985   -3.1197    0.0000 C   0  0  0  0  0  0  0  0  0  0  0  0
    1.3465   -2.5066    0.0000 C   0  0  0  0  0  0  0  0  0  0  0  0
    2.5660   -3.6047    0.0000 C   0  0  0  0  0  0  0  0  0  0  0  0
    2.3110   -4.3893    0.0000 C   0  0  0  0  0  0  0  0  0  0  0  0
    1.4860   -4.3893    0.0000 C   0  0  0  0  0  0  0  0  0  0  0  0
    1.2311   -3.6047    0.0000 O   0  0  0  0  0  0  0  0  0  0  0  0
    2.7477   -1.1089    0.0000 S   0  0  0  0  0  0  0  0  0  0  0  0
    3.3607   -1.6610    0.0000 O   0  0  0  0  0  0  0  0  0  0  0  0
    2.1346   -0.5569    0.0000 O   0  0  0  0  0  0  0  0  0  0  0  0
    3.2997   -0.4958    0.0000 C   0  0  0  0  0  0  0  0  0  0  0  0
    3.0447    0.2888    0.0000 C   0  0  0  0  0  0  0  0  0  0  0  0
    3.5968    0.9019    0.0000 C   0  0  0  0  0  0  0  0  0  0  0  0
    4.4038    0.7304    0.0000 C   0  0  0  0  0  0  0  0  0  0  0  0
    4.9558    1.3434    0.0000 Cl  0  0  0  0  0  0  0  0  0  0  0  0
    4.6587   -0.0543    0.0000 C   0  0  0  0  0  0  0  0  0  0  0  0
    4.1067   -0.6674    0.0000 C   0  0  0  0  0  0  0  0  0  0  0  0
    3.3418    1.6865    0.0000 S   0  0  0  0  0  0  0  0  0  0  0  0
    3.0869    2.4711    0.0000 N   0  0  0  0  0  0  0  0  0  0  0  0
    4.1265    1.9414    0.0000 O   0  0  0  0  0  0  0  0  0  0  0  0
    2.5572    1.4316    0.0000 O   0  0  0  0  0  0  0  0  0  0  0  0
  1  2  1  0  0  0  0
  2  3  1  0  0  0  0
  3  4  1  0  0  0  0
  4  5  1  0  0  0  0
  4  6  1  0  0  0  0
  6  7  1  0  0  0  0
  7  8  1  0  0  0  0
  8  9  1  0  0  0  0
  4  9  1  0  0  0  0
  2 10  1  0  0  0  0
 10 11  2  0  0  0  0
 10 12  2  0  0  0  0
 10 13  1  0  0  0  0
 13 14  4  0  0  0  0
 14 15  4  0  0  0  0
 15 16  4  0  0  0  0
 16 17  1  0  0  0  0
 16 18  4  0  0  0  0
 18 19  4  0  0  0  0
 13 19  4  0  0  0  0
 15 20  1  0  0  0  0
 20 21  1  0  0  0  0
 20 22  2  0  0  0  0
 20 23  2  0  0  0  0
M  END
>  <ID>
1666

>  <PREFERRED_NAME>
mefruside

>  <CAS_RN>
7195-27-9

>  <SYNONYMS>
mefruside
mefrusid

>  <URL>
http://drugcentral.org/drugcard/1666/view

$$$$
