melphalan flufenamide
  -INDIGO-06102311212D

 33 34  0  0  1  0  0  0  0  0999 V2000
    0.7145   -2.2836    0.0000 C   0  0  0  0  0  0  0  0  0  0  0  0
    0.3020   -2.9980    0.0000 C   0  0  0  0  0  0  0  0  0  0  0  0
    0.7145   -3.7125    0.0000 O   0  0  0  0  0  0  0  0  0  0  0  0
    0.3020   -4.4270    0.0000 C   0  0  0  0  0  0  0  0  0  0  0  0
   -0.5230   -4.4270    0.0000 O   0  0  0  0  0  0  0  0  0  0  0  0
    0.7145   -5.1414    0.0000 C   0  0  2  0  0  0  0  0  0  0  0  0
    0.3020   -5.8559    0.0000 C   0  0  0  0  0  0  0  0  0  0  0  0
   -0.5230   -5.8559    0.0000 C   0  0  0  0  0  0  0  0  0  0  0  0
   -0.9355   -6.5704    0.0000 C   0  0  0  0  0  0  0  0  0  0  0  0
   -1.7605   -6.5704    0.0000 C   0  0  0  0  0  0  0  0  0  0  0  0
   -2.1730   -5.8559    0.0000 C   0  0  0  0  0  0  0  0  0  0  0  0
   -1.7605   -5.1414    0.0000 C   0  0  0  0  0  0  0  0  0  0  0  0
   -0.9355   -5.1414    0.0000 C   0  0  0  0  0  0  0  0  0  0  0  0
   -2.9980   -5.8559    0.0000 F   0  0  0  0  0  0  0  0  0  0  0  0
    1.5395   -5.1414    0.0000 N   0  0  0  0  0  0  0  0  0  0  0  0
    1.9520   -4.4270    0.0000 C   0  0  0  0  0  0  0  0  0  0  0  0
    1.5395   -3.7125    0.0000 O   0  0  0  0  0  0  0  0  0  0  0  0
    2.7770   -4.4270    0.0000 C   0  0  2  0  0  0  0  0  0  0  0  0
    3.1895   -3.7125    0.0000 C   0  0  0  0  0  0  0  0  0  0  0  0
    4.0145   -3.7125    0.0000 C   0  0  0  0  0  0  0  0  0  0  0  0
    4.4270   -2.9980    0.0000 C   0  0  0  0  0  0  0  0  0  0  0  0
    5.2520   -2.9980    0.0000 C   0  0  0  0  0  0  0  0  0  0  0  0
    5.6645   -3.7125    0.0000 C   0  0  0  0  0  0  0  0  0  0  0  0
    5.2520   -4.4270    0.0000 C   0  0  0  0  0  0  0  0  0  0  0  0
    4.4270   -4.4270    0.0000 C   0  0  0  0  0  0  0  0  0  0  0  0
    6.4895   -3.7125    0.0000 N   0  0  0  0  0  0  0  0  0  0  0  0
    6.9020   -2.9980    0.0000 C   0  0  0  0  0  0  0  0  0  0  0  0
    7.7270   -2.9980    0.0000 C   0  0  0  0  0  0  0  0  0  0  0  0
    8.1395   -2.2836    0.0000 Cl  0  0  0  0  0  0  0  0  0  0  0  0
    6.9020   -4.4270    0.0000 C   0  0  0  0  0  0  0  0  0  0  0  0
    7.7270   -4.4270    0.0000 C   0  0  0  0  0  0  0  0  0  0  0  0
    8.1395   -5.1414    0.0000 Cl  0  0  0  0  0  0  0  0  0  0  0  0
    3.1895   -5.1414    0.0000 N   0  0  0  0  0  0  0  0  0  0  0  0
  1  2  1  0  0  0  0
  2  3  1  0  0  0  0
  3  4  1  0  0  0  0
  4  5  2  0  0  0  0
  4  6  1  0  0  0  0
  6  7  1  0  0  0  0
  7  8  1  0  0  0  0
  8  9  4  0  0  0  0
  9 10  4  0  0  0  0
 10 11  4  0  0  0  0
 11 12  4  0  0  0  0
 12 13  4  0  0  0  0
  8 13  4  0  0  0  0
 11 14  1  0  0  0  0
  6 15  1  1  0  0  0
 15 16  1  0  0  0  0
 16 17  2  0  0  0  0
 16 18  1  0  0  0  0
 18 19  1  0  0  0  0
 19 20  1  0  0  0  0
 20 21  4  0  0  0  0
 21 22  4  0  0  0  0
 22 23  4  0  0  0  0
 23 24  4  0  0  0  0
 24 25  4  0  0  0  0
 20 25  4  0  0  0  0
 23 26  1  0  0  0  0
 26 27  1  0  0  0  0
 27 28  1  0  0  0  0
 28 29  1  0  0  0  0
 26 30  1  0  0  0  0
 30 31  1  0  0  0  0
 31 32  1  0  0  0  0
 18 33  1  6  0  0  0
M  END
>  <ID>
5445

>  <PREFERRED_NAME>
melphalan flufenamide

>  <CAS_RN>
380449-51-4

>  <SYNONYMS>
melphalan flufenamide
melphalan flufenamide hydrochloride
pepaxto
melflufen
J1
CK 1535

>  <URL>
http://drugcentral.org/drugcard/5445/view

$$$$
