memantine
  -INDIGO-06102311012D

 13 15  0  0  0  0  0  0  0  0999 V2000
    0.8517   -2.4835    0.0000 C   0  0  0  0  0  0  0  0  0  0  0  0
    0.8517   -1.6585    0.0000 C   0  0  0  0  0  0  0  0  0  0  0  0
    0.1163   -2.0322    0.0000 C   0  0  0  0  0  0  0  0  0  0  0  0
    0.5657   -1.2419    0.0000 C   0  0  0  0  0  0  0  0  0  0  0  0
    0.5657   -0.4945    0.0000 C   0  0  0  0  0  0  0  0  0  0  0  0
    1.3012   -0.1208    0.0000 C   0  0  0  0  0  0  0  0  0  0  0  0
    1.3012    0.7042    0.0000 C   0  0  0  0  0  0  0  0  0  0  0  0
    0.8517   -0.9111    0.0000 C   0  0  0  0  0  0  0  0  0  0  0  0
    2.0368   -0.4945    0.0000 C   0  0  0  0  0  0  0  0  0  0  0  0
    2.0368   -1.2419    0.0000 C   0  0  0  0  0  0  0  0  0  0  0  0
    2.8344   -1.4529    0.0000 N   0  0  0  0  0  0  0  0  0  0  0  0
    1.3012   -1.6156    0.0000 C   0  0  0  0  0  0  0  0  0  0  0  0
    1.5873   -2.0322    0.0000 C   0  0  0  0  0  0  0  0  0  0  0  0
  1  2  1  0  0  0  0
  2  3  1  0  0  0  0
  3  4  1  0  0  0  0
  2 13  1  0  0  0  0
  5  6  1  0  0  0  0
  6  7  1  0  0  0  0
  6  8  1  0  0  0  0
 10 13  1  0  0  0  0
  6  9  1  0  0  0  0
  4 12  1  0  0  0  0
 10 11  1  0  0  0  0
 10 12  1  0  0  0  0
  9 10  1  0  0  0  0
  2  8  1  0  0  0  0
  4  5  1  0  0  0  0
M  END
>  <ID>
1679

>  <PREFERRED_NAME>
memantine

>  <CAS_RN>
19982-08-2

>  <SYNONYMS>
memantine
alzantin
memantina
memantine hydrochloride
ebixa
namenda
maruxa
memantine HCl
nemdatine

>  <URL>
http://drugcentral.org/drugcard/1679/view

$$$$
