mepacrine
  -INDIGO-06102311042D

 28 30  0  0  0  0  0  0  0  0999 V2000
    2.4922    4.9598    0.0000 C   0  0  0  0  0  0  0  0  0  0  0  0
    3.3023    5.1157    0.0000 C   0  0  0  0  0  0  0  0  0  0  0  0
    3.8424    4.4921    0.0000 N   0  0  0  0  0  0  0  0  0  0  0  0
    3.5724    3.7125    0.0000 C   0  0  0  0  0  0  0  0  0  0  0  0
    2.7622    3.5566    0.0000 C   0  0  0  0  0  0  0  0  0  0  0  0
    4.6525    4.6480    0.0000 C   0  0  0  0  0  0  0  0  0  0  0  0
    5.1926    4.0243    0.0000 C   0  0  0  0  0  0  0  0  0  0  0  0
    6.0028    4.1802    0.0000 C   0  0  0  0  0  0  0  0  0  0  0  0
    6.5428    3.5566    0.0000 C   0  0  0  0  0  0  0  0  0  0  0  0
    6.2728    2.7770    0.0000 C   0  0  0  0  0  0  0  0  0  0  0  0
    7.3530    3.7125    0.0000 N   0  0  0  0  0  0  0  0  0  0  0  0
    7.8931    3.0889    0.0000 C   0  0  0  0  0  0  0  0  0  0  0  0
    8.7032    3.2448    0.0000 C   0  0  0  0  0  0  0  0  0  0  0  0
    8.9732    4.0243    0.0000 C   0  0  0  0  0  0  0  0  0  0  0  0
    9.7834    4.1802    0.0000 C   0  0  0  0  0  0  0  0  0  0  0  0
   10.0534    4.9598    0.0000 O   0  0  0  0  0  0  0  0  0  0  0  0
   10.8636    5.1157    0.0000 C   0  0  0  0  0  0  0  0  0  0  0  0
   10.3235    3.5566    0.0000 C   0  0  0  0  0  0  0  0  0  0  0  0
   10.0534    2.7770    0.0000 C   0  0  0  0  0  0  0  0  0  0  0  0
    9.2433    2.6211    0.0000 C   0  0  0  0  0  0  0  0  0  0  0  0
    8.9732    1.8416    0.0000 N   0  0  0  0  0  0  0  0  0  0  0  0
    8.1631    1.6857    0.0000 C   0  0  0  0  0  0  0  0  0  0  0  0
    7.8931    0.9061    0.0000 C   0  0  0  0  0  0  0  0  0  0  0  0
    7.0829    0.7502    0.0000 C   0  0  0  0  0  0  0  0  0  0  0  0
    6.8129   -0.0293    0.0000 Cl  0  0  0  0  0  0  0  0  0  0  0  0
    6.5428    1.3738    0.0000 C   0  0  0  0  0  0  0  0  0  0  0  0
    6.8129    2.1534    0.0000 C   0  0  0  0  0  0  0  0  0  0  0  0
    7.6230    2.3093    0.0000 C   0  0  0  0  0  0  0  0  0  0  0  0
  1  2  1  0  0  0  0
  2  3  1  0  0  0  0
  3  4  1  0  0  0  0
  4  5  1  0  0  0  0
  3  6  1  0  0  0  0
  6  7  1  0  0  0  0
  7  8  1  0  0  0  0
  8  9  1  0  0  0  0
  9 10  1  0  0  0  0
  9 11  1  0  0  0  0
 11 12  1  0  0  0  0
 12 13  4  0  0  0  0
 13 14  4  0  0  0  0
 14 15  4  0  0  0  0
 15 16  1  0  0  0  0
 16 17  1  0  0  0  0
 15 18  4  0  0  0  0
 18 19  4  0  0  0  0
 19 20  4  0  0  0  0
 13 20  4  0  0  0  0
 20 21  4  0  0  0  0
 21 22  4  0  0  0  0
 22 23  4  0  0  0  0
 23 24  4  0  0  0  0
 24 25  1  0  0  0  0
 24 26  4  0  0  0  0
 26 27  4  0  0  0  0
 27 28  4  0  0  0  0
 12 28  4  0  0  0  0
 22 28  4  0  0  0  0
M  END
>  <ID>
2338

>  <PREFERRED_NAME>
mepacrine

>  <CAS_RN>
83-89-6

>  <SYNONYMS>
mepacrine
quinacrin
quinacrine
atabrine
acrinamine
acriquine
quinacrine dihydrochloride hydrate
quinacrine dihydrochloride
quinacrine hydrochloride
quinacrine HCl

>  <URL>
http://drugcentral.org/drugcard/2338/view

$$$$
