mepiprazole
  -INDIGO-06102311182D

 21 23  0  0  0  0  0  0  0  0999 V2000
    1.4289   -4.1250    0.0000 C   0  0  0  0  0  0  0  0  0  0  0  0
    1.4289   -4.9500    0.0000 C   0  0  0  0  0  0  0  0  0  0  0  0
    2.0964   -5.4349    0.0000 C   0  0  0  0  0  0  0  0  0  0  0  0
    1.8414   -6.2195    0.0000 C   0  0  0  0  0  0  0  0  0  0  0  0
    2.3264   -6.8870    0.0000 C   0  0  0  0  0  0  0  0  0  0  0  0
    3.1468   -6.8007    0.0000 C   0  0  0  0  0  0  0  0  0  0  0  0
    3.6318   -7.4682    0.0000 N   0  0  0  0  0  0  0  0  0  0  0  0
    4.4522   -7.3820    0.0000 C   0  0  0  0  0  0  0  0  0  0  0  0
    4.9372   -8.0494    0.0000 C   0  0  0  0  0  0  0  0  0  0  0  0
    4.6016   -8.8031    0.0000 N   0  0  0  0  0  0  0  0  0  0  0  0
    3.7811   -8.8893    0.0000 C   0  0  0  0  0  0  0  0  0  0  0  0
    3.2962   -8.2219    0.0000 C   0  0  0  0  0  0  0  0  0  0  0  0
    5.0865   -9.4705    0.0000 C   0  0  0  0  0  0  0  0  0  0  0  0
    5.9070   -9.3843    0.0000 C   0  0  0  0  0  0  0  0  0  0  0  0
    6.3919  -10.0517    0.0000 C   0  0  0  0  0  0  0  0  0  0  0  0
    7.2124   -9.9655    0.0000 Cl  0  0  0  0  0  0  0  0  0  0  0  0
    6.0564  -10.8054    0.0000 C   0  0  0  0  0  0  0  0  0  0  0  0
    5.2359  -10.8916    0.0000 C   0  0  0  0  0  0  0  0  0  0  0  0
    4.7510  -10.2242    0.0000 C   0  0  0  0  0  0  0  0  0  0  0  0
    1.0164   -6.2195    0.0000 N   0  0  0  0  0  0  0  0  0  0  0  0
    0.7615   -5.4349    0.0000 N   0  0  0  0  0  0  0  0  0  0  0  0
  1  2  1  0  0  0  0
  2  3  4  0  0  0  0
  3  4  4  0  0  0  0
  4  5  1  0  0  0  0
  5  6  1  0  0  0  0
  6  7  1  0  0  0  0
  7  8  1  0  0  0  0
  8  9  1  0  0  0  0
  9 10  1  0  0  0  0
 10 11  1  0  0  0  0
 11 12  1  0  0  0  0
  7 12  1  0  0  0  0
 10 13  1  0  0  0  0
 13 14  4  0  0  0  0
 14 15  4  0  0  0  0
 15 16  1  0  0  0  0
 15 17  4  0  0  0  0
 17 18  4  0  0  0  0
 18 19  4  0  0  0  0
 13 19  4  0  0  0  0
  4 20  4  0  0  0  0
 20 21  4  0  0  0  0
  2 21  4  0  0  0  0
M  STY  1   1 DAT
M  SLB  1   1   1
M  SAL   1  1  21
M  SDT   1 MRV_IMPLICIT_H
M  SDD   1     0.0000    0.0000    DA    ALL  1       1
M  SED   1 IMPL_H1
M  END
>  <ID>
5097

>  <PREFERRED_NAME>
mepiprazole

>  <CAS_RN>
20326-12-9

>  <SYNONYMS>
mepiprazole
mepiprazole hydrochloride
psigodal
mepiprazole dihydrochloride

>  <URL>
http://drugcentral.org/drugcard/5097/view

$$$$
