mepiperphenidol
  -INDIGO-06102311012D

 21 22  0  0  0  0  0  0  0  0999 V2000
    0.4125   -2.3645    0.0000 C   0  0  0  0  0  0  0  0  0  0  0  0
    0.0000   -1.6500    0.0000 C   0  0  0  0  0  0  0  0  0  0  0  0
   -0.8250   -1.6500    0.0000 C   0  0  0  0  0  0  0  0  0  0  0  0
    0.4125   -0.9355    0.0000 C   0  0  0  0  0  0  0  0  0  0  0  0
    1.2375   -0.9355    0.0000 C   0  0  0  0  0  0  0  0  0  0  0  0
    1.6500   -0.2211    0.0000 O   0  0  0  0  0  0  0  0  0  0  0  0
    1.6500   -1.6500    0.0000 C   0  0  0  0  0  0  0  0  0  0  0  0
    2.4750   -1.6500    0.0000 C   0  0  0  0  0  0  0  0  0  0  0  0
    2.8875   -2.3645    0.0000 N   0  0  0  0  0  0  0  0  0  0  0  0
    2.1123   -2.6466    0.0000 C   0  0  0  0  0  0  0  0  0  0  0  0
    3.5195   -1.8342    0.0000 C   0  0  0  0  0  0  0  0  0  0  0  0
    4.2947   -2.1163    0.0000 C   0  0  0  0  0  0  0  0  0  0  0  0
    4.4380   -2.9288    0.0000 C   0  0  0  0  0  0  0  0  0  0  0  0
    3.8060   -3.4591    0.0000 C   0  0  0  0  0  0  0  0  0  0  0  0
    3.0308   -3.1769    0.0000 C   0  0  0  0  0  0  0  0  0  0  0  0
    0.0000   -0.2211    0.0000 C   0  0  0  0  0  0  0  0  0  0  0  0
   -0.8250   -0.2211    0.0000 C   0  0  0  0  0  0  0  0  0  0  0  0
   -1.2375    0.4934    0.0000 C   0  0  0  0  0  0  0  0  0  0  0  0
   -0.8250    1.2079    0.0000 C   0  0  0  0  0  0  0  0  0  0  0  0
    0.0000    1.2079    0.0000 C   0  0  0  0  0  0  0  0  0  0  0  0
    0.4125    0.4934    0.0000 C   0  0  0  0  0  0  0  0  0  0  0  0
  1  2  1  0  0  0  0
  2  3  1  0  0  0  0
  2  4  1  0  0  0  0
  4  5  1  0  0  0  0
  5  6  1  0  0  0  0
  5  7  1  0  0  0  0
  7  8  1  0  0  0  0
  8  9  1  0  0  0  0
  9 10  1  0  0  0  0
  9 11  1  0  0  0  0
 11 12  1  0  0  0  0
 12 13  1  0  0  0  0
 13 14  1  0  0  0  0
 14 15  1  0  0  0  0
  9 15  1  0  0  0  0
  4 16  1  0  0  0  0
 16 17  4  0  0  0  0
 17 18  4  0  0  0  0
 18 19  4  0  0  0  0
 19 20  4  0  0  0  0
 20 21  4  0  0  0  0
 16 21  4  0  0  0  0
M  CHG  1   9   1
M  END
>  <ID>
1698

>  <PREFERRED_NAME>
mepiperphenidol

>  <CAS_RN>
520-20-7

>  <SYNONYMS>
mepiperphenidol
mepiperphenidol bromide
mepiperphenidyl
piperphenamine

>  <URL>
http://drugcentral.org/drugcard/1698/view

$$$$
