meproscillarin
  -INDIGO-06102311022D

 39 44  0  0  1  0  0  0  0  0999 V2000
   -1.4991   -6.0873    0.0000 C   0  0  0  0  0  0  0  0  0  0  0  0
   -2.0310   -5.4566    0.0000 O   0  0  0  0  0  0  0  0  0  0  0  0
   -1.7507   -4.6807    0.0000 C   0  0  1  0  0  0  0  0  0  0  0  0
   -2.2825   -4.0500    0.0000 C   0  0  2  0  0  0  0  0  0  0  0  0
   -3.0946   -4.1952    0.0000 C   0  0  0  0  0  0  0  0  0  0  0  0
   -2.0022   -3.2741    0.0000 O   0  0  0  0  0  0  0  0  0  0  0  0
   -1.1901   -3.1289    0.0000 C   0  0  1  0  0  0  0  0  0  0  0  0
   -0.9098   -2.3529    0.0000 O   0  0  0  0  0  0  0  0  0  0  0  0
   -0.0976   -2.2077    0.0000 C   0  0  1  0  0  0  0  0  0  0  0  0
    0.1827   -1.4318    0.0000 C   0  0  0  0  0  0  0  0  0  0  0  0
    0.9948   -1.2866    0.0000 C   0  0  0  0  0  0  0  0  0  0  0  0
    1.5266   -1.9173    0.0000 C   0  0  2  0  0  0  0  0  0  0  0  0
    1.8069   -1.1414    0.0000 C   0  0  0  0  0  0  0  0  0  0  0  0
    2.3387   -1.7721    0.0000 C   0  0  1  0  0  0  0  0  0  0  0  0
    2.6190   -0.9961    0.0000 C   0  0  0  0  0  0  0  0  0  0  0  0
    3.4311   -0.8509    0.0000 C   0  0  0  0  0  0  0  0  0  0  0  0
    3.9629   -1.4816    0.0000 C   0  0  2  0  0  0  0  0  0  0  0  0
    4.3228   -0.7393    0.0000 C   0  0  0  0  0  0  0  0  0  0  0  0
    4.7875   -1.5084    0.0000 C   0  0  2  0  0  0  0  0  0  0  0  0
    5.0168   -2.3009    0.0000 C   0  0  0  0  0  0  0  0  0  0  0  0
    4.3340   -2.7639    0.0000 C   0  0  0  0  0  0  0  0  0  0  0  0
    3.6826   -2.2576    0.0000 C   0  0  1  0  0  0  0  0  0  0  0  0
    3.4850   -3.0585    0.0000 O   0  0  0  0  0  0  0  0  0  0  0  0
    2.8705   -2.4028    0.0000 C   0  0  2  0  0  0  0  0  0  0  0  0
    2.5902   -3.1787    0.0000 C   0  0  0  0  0  0  0  0  0  0  0  0
    1.7781   -3.3239    0.0000 C   0  0  0  0  0  0  0  0  0  0  0  0
    1.2463   -2.6932    0.0000 C   0  0  0  0  0  0  0  0  0  0  0  0
    0.4342   -2.8384    0.0000 C   0  0  0  0  0  0  0  0  0  0  0  0
    5.2939   -0.8571    0.0000 C   0  0  0  0  0  0  0  0  0  0  0  0
    4.9830   -0.0929    0.0000 C   0  0  0  0  0  0  0  0  0  0  0  0
    5.4893    0.5584    0.0000 O   0  0  0  0  0  0  0  0  0  0  0  0
    6.3066    0.4455    0.0000 C   0  0  0  0  0  0  0  0  0  0  0  0
    6.8129    1.0969    0.0000 O   0  0  0  0  0  0  0  0  0  0  0  0
    6.6175   -0.3186    0.0000 C   0  0  0  0  0  0  0  0  0  0  0  0
    6.1111   -0.9700    0.0000 C   0  0  0  0  0  0  0  0  0  0  0  0
   -0.6582   -3.7596    0.0000 C   0  0  2  0  0  0  0  0  0  0  0  0
    0.1539   -3.6143    0.0000 O   0  0  0  0  0  0  0  0  0  0  0  0
   -0.9385   -4.5355    0.0000 C   0  0  2  0  0  0  0  0  0  0  0  0
   -0.4067   -5.1662    0.0000 O   0  0  0  0  0  0  0  0  0  0  0  0
  1  2  1  0  0  0  0
  3  2  1  1  0  0  0
  3  4  1  0  0  0  0
  4  5  1  6  0  0  0
  4  6  1  0  0  0  0
  6  7  1  0  0  0  0
  7  8  1  1  0  0  0
  9  8  1  1  0  0  0
  9 10  1  0  0  0  0
 10 11  1  0  0  0  0
 11 12  1  0  0  0  0
 12 13  1  1  0  0  0
 12 14  1  0  0  0  0
 14 15  1  1  0  0  0
 15 16  1  0  0  0  0
 16 17  1  0  0  0  0
 17 18  1  1  0  0  0
 17 19  1  0  0  0  0
 19 20  1  0  0  0  0
 20 21  1  0  0  0  0
 21 22  1  0  0  0  0
 17 22  1  0  0  0  0
 22 23  1  1  0  0  0
 22 24  1  0  0  0  0
 14 24  1  0  0  0  0
 24 25  1  6  0  0  0
 25 26  1  0  0  0  0
 26 27  1  0  0  0  0
 12 27  1  0  0  0  0
 27 28  2  0  0  0  0
  9 28  1  0  0  0  0
 19 29  1  1  0  0  0
 29 30  2  0  0  0  0
 30 31  1  0  0  0  0
 31 32  1  0  0  0  0
 32 33  2  0  0  0  0
 32 34  1  0  0  0  0
 34 35  2  0  0  0  0
 29 35  1  0  0  0  0
  7 36  1  0  0  0  0
 36 37  1  6  0  0  0
 36 38  1  0  0  0  0
  3 38  1  0  0  0  0
 38 39  1  6  0  0  0
M  END
>  <ID>
1705

>  <PREFERRED_NAME>
meproscillarin

>  <CAS_RN>
33396-37-1

>  <SYNONYMS>
meproscillarin
methyl proscillaridin
Methyl proscillaridin A
Proscillaridin 4-methyl ether

>  <URL>
http://drugcentral.org/drugcard/1705/view

$$$$
