mercuric chloride
  -INDIGO-06102311142D

  3  2  0  0  0  0  0  0  0  0999 V2000
    1.6500    0.0000    0.0000 Cl  0  0  0  0  0  0  0  0  0  0  0  0
    2.4750    0.0000    0.0000 Hg  0  0  0  0  0  0  0  0  0  0  0  0
    3.3000    0.0000    0.0000 Cl  0  0  0  0  0  0  0  0  0  0  0  0
  1  2  1  0  0  0  0
  2  3  1  0  0  0  0
M  END
>  <ID>
4787

>  <PREFERRED_NAME>
mercuric chloride

>  <CAS_RN>
7487-94-7

>  <SYNONYMS>
mercuric chloride
mercuric bichloride
mercury dichloride

>  <URL>
http://drugcentral.org/drugcard/4787/view

$$$$
