mesterolone
  -INDIGO-06102311092D

 22 25  0  0  1  0  0  0  0  0999 V2000
    3.4185   -2.3768    0.0000 C   0  0  0  0  0  0  0  0  0  0  0  0
    3.1382   -1.6009    0.0000 C   0  0  1  0  0  0  0  0  0  0  0  0
    2.3261   -1.4557    0.0000 C   0  0  0  0  0  0  0  0  0  0  0  0
    2.0458   -0.6798    0.0000 C   0  0  0  0  0  0  0  0  0  0  0  0
    1.2336   -0.5346    0.0000 O   0  0  0  0  0  0  0  0  0  0  0  0
    2.5776   -0.0491    0.0000 C   0  0  0  0  0  0  0  0  0  0  0  0
    3.3897   -0.1943    0.0000 C   0  0  2  0  0  0  0  0  0  0  0  0
    3.9215    0.4364    0.0000 C   0  0  0  0  0  0  0  0  0  0  0  0
    4.7336    0.2912    0.0000 C   0  0  0  0  0  0  0  0  0  0  0  0
    5.0139   -0.4847    0.0000 C   0  0  1  0  0  0  0  0  0  0  0  0
    5.8261   -0.6299    0.0000 C   0  0  2  0  0  0  0  0  0  0  0  0
    6.4774   -0.1236    0.0000 C   0  0  0  0  0  0  0  0  0  0  0  0
    7.1602   -0.5866    0.0000 C   0  0  0  0  0  0  0  0  0  0  0  0
    6.9309   -1.3791    0.0000 C   0  0  2  0  0  0  0  0  0  0  0  0
    7.4373   -2.0304    0.0000 O   0  0  0  0  0  0  0  0  0  0  0  0
    6.1064   -1.4059    0.0000 C   0  0  2  0  0  0  0  0  0  0  0  0
    6.4662   -2.1482    0.0000 C   0  0  0  0  0  0  0  0  0  0  0  0
    5.5745   -2.0366    0.0000 C   0  0  0  0  0  0  0  0  0  0  0  0
    4.7624   -1.8914    0.0000 C   0  0  0  0  0  0  0  0  0  0  0  0
    4.4821   -1.1154    0.0000 C   0  0  2  0  0  0  0  0  0  0  0  0
    3.6700   -0.9702    0.0000 C   0  0  1  0  0  0  0  0  0  0  0  0
    3.9503   -1.7461    0.0000 C   0  0  0  0  0  0  0  0  0  0  0  0
  2  1  1  1  0  0  0
  2  3  1  0  0  0  0
  3  4  1  0  0  0  0
  4  5  2  0  0  0  0
  4  6  1  0  0  0  0
  7  6  1  6  0  0  0
  7  8  1  0  0  0  0
  8  9  1  0  0  0  0
 10  9  1  1  0  0  0
 10 11  1  0  0  0  0
 11 12  1  6  0  0  0
 12 13  1  0  0  0  0
 13 14  1  0  0  0  0
 14 15  1  6  0  0  0
 14 16  1  0  0  0  0
 11 16  1  0  0  0  0
 16 17  1  6  0  0  0
 16 18  1  0  0  0  0
 18 19  1  0  0  0  0
 20 19  1  6  0  0  0
 10 20  1  0  0  0  0
 20 21  1  0  0  0  0
  2 21  1  0  0  0  0
  7 21  1  0  0  0  0
 21 22  1  6  0  0  0
M  END
>  <ID>
3342

>  <PREFERRED_NAME>
mesterolone

>  <CAS_RN>
1424-00-6

>  <SYNONYMS>
mesterolone
androviron
mesteranum
mestoranum

>  <URL>
http://drugcentral.org/drugcard/3342/view

$$$$
