metampicillin
  -INDIGO-06102311022D

 25 27  0  0  1  0  0  0  0  0999 V2000
   -2.3137    6.6970    0.0000 C   0  0  0  0  0  0  0  0  0  0  0  0
   -2.6882    5.9619    0.0000 C   0  0  0  0  0  0  0  0  0  0  0  0
   -3.3801    6.4113    0.0000 C   0  0  0  0  0  0  0  0  0  0  0  0
   -1.9180    5.6663    0.0000 S   0  0  0  0  0  0  0  0  0  0  0  0
   -1.9612    4.8424    0.0000 C   0  0  2  0  0  0  0  0  0  0  0  0
   -1.7477    4.0455    0.0000 C   0  0  2  0  0  0  0  0  0  0  0  0
   -1.0332    3.6330    0.0000 N   0  0  0  0  0  0  0  0  0  0  0  0
   -1.0332    2.8080    0.0000 C   0  0  0  0  0  0  0  0  0  0  0  0
   -1.7477    2.3955    0.0000 O   0  0  0  0  0  0  0  0  0  0  0  0
   -0.3187    2.3955    0.0000 C   0  0  2  0  0  0  0  0  0  0  0  0
    0.3957    2.8080    0.0000 N   0  0  0  0  0  0  0  0  0  0  0  0
    1.1102    2.3955    0.0000 C   0  0  0  0  0  0  0  0  0  0  0  0
   -0.3187    1.5705    0.0000 C   0  0  0  0  0  0  0  0  0  0  0  0
    0.3957    1.1580    0.0000 C   0  0  0  0  0  0  0  0  0  0  0  0
    0.3957    0.3330    0.0000 C   0  0  0  0  0  0  0  0  0  0  0  0
   -0.3187   -0.0795    0.0000 C   0  0  0  0  0  0  0  0  0  0  0  0
   -1.0332    0.3330    0.0000 C   0  0  0  0  0  0  0  0  0  0  0  0
   -1.0332    1.1580    0.0000 C   0  0  0  0  0  0  0  0  0  0  0  0
   -2.5446    3.8320    0.0000 C   0  0  0  0  0  0  0  0  0  0  0  0
   -2.9571    3.1175    0.0000 O   0  0  0  0  0  0  0  0  0  0  0  0
   -2.7581    4.6289    0.0000 N   0  0  0  0  0  0  0  0  0  0  0  0
   -3.2074    5.3208    0.0000 C   0  0  1  0  0  0  0  0  0  0  0  0
   -4.0313    5.3640    0.0000 C   0  0  0  0  0  0  0  0  0  0  0  0
   -4.4806    4.6721    0.0000 O   0  0  0  0  0  0  0  0  0  0  0  0
   -4.4058    6.0991    0.0000 O   0  0  0  0  0  0  0  0  0  0  0  0
  1  2  1  0  0  0  0
  2  3  1  0  0  0  0
  2  4  1  0  0  0  0
  4  5  1  0  0  0  0
  5  6  1  0  0  0  0
  6  7  1  6  0  0  0
  7  8  1  0  0  0  0
  8  9  2  0  0  0  0
  8 10  1  0  0  0  0
 10 11  1  6  0  0  0
 11 12  2  0  0  0  0
 10 13  1  0  0  0  0
 13 14  4  0  0  0  0
 14 15  4  0  0  0  0
 15 16  4  0  0  0  0
 16 17  4  0  0  0  0
 17 18  4  0  0  0  0
 13 18  4  0  0  0  0
  6 19  1  0  0  0  0
 19 20  2  0  0  0  0
 19 21  1  0  0  0  0
  5 21  1  6  0  0  0
 21 22  1  0  0  0  0
  2 22  1  0  0  0  0
 22 23  1  1  0  0  0
 23 24  1  0  0  0  0
 23 25  2  0  0  0  0
M  END
>  <ID>
1718

>  <PREFERRED_NAME>
metampicillin

>  <CAS_RN>
6489-97-0

>  <SYNONYMS>
metampicillin
methylenampicillin
fedacilina
pravacilin

>  <URL>
http://drugcentral.org/drugcard/1718/view

$$$$
