methylprednisolone succinate
  -INDIGO-06102311022D

 34 37  0  0  1  0  0  0  0  0999 V2000
   -2.0420   -0.5520    0.0000 C   0  0  0  0  0  0  0  0  0  0  0  0
   -2.0420   -1.3770    0.0000 C   0  0  1  0  0  0  0  0  0  0  0  0
   -1.3276   -1.7895    0.0000 C   0  0  0  0  0  0  0  0  0  0  0  0
   -1.3276   -2.6145    0.0000 C   0  0  1  0  0  0  0  0  0  0  0  0
   -0.6131   -3.0270    0.0000 C   0  0  2  0  0  0  0  0  0  0  0  0
    0.1715   -2.7721    0.0000 C   0  0  0  0  0  0  0  0  0  0  0  0
    0.6564   -3.4395    0.0000 C   0  0  0  0  0  0  0  0  0  0  0  0
    0.1715   -4.1070    0.0000 C   0  0  2  0  0  0  0  0  0  0  0  0
   -0.1640   -4.8606    0.0000 O   0  0  0  0  0  0  0  0  0  0  0  0
    0.8860   -4.5195    0.0000 C   0  0  0  0  0  0  0  0  0  0  0  0
    0.8860   -5.3445    0.0000 O   0  0  0  0  0  0  0  0  0  0  0  0
    1.6005   -4.1070    0.0000 C   0  0  0  0  0  0  0  0  0  0  0  0
    2.3149   -4.5195    0.0000 O   0  0  0  0  0  0  0  0  0  0  0  0
    3.0294   -4.1070    0.0000 C   0  0  0  0  0  0  0  0  0  0  0  0
    3.0294   -3.2820    0.0000 O   0  0  0  0  0  0  0  0  0  0  0  0
    3.7439   -4.5195    0.0000 C   0  0  0  0  0  0  0  0  0  0  0  0
    4.4584   -4.1070    0.0000 C   0  0  0  0  0  0  0  0  0  0  0  0
    5.1728   -4.5195    0.0000 C   0  0  0  0  0  0  0  0  0  0  0  0
    5.8873   -4.1070    0.0000 O   0  0  0  0  0  0  0  0  0  0  0  0
    5.1728   -5.3445    0.0000 O   0  0  0  0  0  0  0  0  0  0  0  0
   -0.6131   -3.8520    0.0000 C   0  0  2  0  0  0  0  0  0  0  0  0
   -0.5269   -4.6725    0.0000 C   0  0  0  0  0  0  0  0  0  0  0  0
   -1.3276   -4.2645    0.0000 C   0  0  0  0  0  0  0  0  0  0  0  0
   -2.0420   -3.8520    0.0000 C   0  0  2  0  0  0  0  0  0  0  0  0
   -2.7565   -4.2645    0.0000 O   0  0  0  0  0  0  0  0  0  0  0  0
   -2.0420   -3.0270    0.0000 C   0  0  2  0  0  0  0  0  0  0  0  0
   -2.7565   -2.6145    0.0000 C   0  0  1  0  0  0  0  0  0  0  0  0
   -2.7565   -3.4395    0.0000 C   0  0  0  0  0  0  0  0  0  0  0  0
   -3.4710   -3.0270    0.0000 C   0  0  0  0  0  0  0  0  0  0  0  0
   -4.1854   -2.6145    0.0000 C   0  0  0  0  0  0  0  0  0  0  0  0
   -4.1854   -1.7895    0.0000 C   0  0  0  0  0  0  0  0  0  0  0  0
   -4.8999   -1.3770    0.0000 O   0  0  0  0  0  0  0  0  0  0  0  0
   -3.4710   -1.3770    0.0000 C   0  0  0  0  0  0  0  0  0  0  0  0
   -2.7565   -1.7895    0.0000 C   0  0  0  0  0  0  0  0  0  0  0  0
  2  1  1  1  0  0  0
  2  3  1  0  0  0  0
  4  3  1  1  0  0  0
  4  5  1  0  0  0  0
  5  6  1  6  0  0  0
  6  7  1  0  0  0  0
  7  8  1  0  0  0  0
  8  9  1  1  0  0  0
  8 10  1  6  0  0  0
 10 11  2  0  0  0  0
 10 12  1  0  0  0  0
 12 13  1  0  0  0  0
 13 14  1  0  0  0  0
 14 15  2  0  0  0  0
 14 16  1  0  0  0  0
 16 17  1  0  0  0  0
 17 18  1  0  0  0  0
 18 19  1  0  0  0  0
 18 20  2  0  0  0  0
  8 21  1  0  0  0  0
  5 21  1  0  0  0  0
 21 22  1  6  0  0  0
 21 23  1  0  0  0  0
 23 24  1  0  0  0  0
 24 25  1  6  0  0  0
 26 24  1  6  0  0  0
  4 26  1  0  0  0  0
 26 27  1  0  0  0  0
 27 28  1  6  0  0  0
 27 29  1  0  0  0  0
 29 30  2  0  0  0  0
 30 31  1  0  0  0  0
 31 32  2  0  0  0  0
 31 33  1  0  0  0  0
 33 34  2  0  0  0  0
  2 34  1  0  0  0  0
 27 34  1  0  0  0  0
M  END
>  <ID>
1771

>  <PREFERRED_NAME>
methylprednisolone succinate

>  <CAS_RN>
2921-57-5

>  <SYNONYMS>
methylprednisolone succinate
methylprednisolone hemisuccinate
methylprednisolone sodium succinate

>  <URL>
http://drugcentral.org/drugcard/1771/view

$$$$
