methysergide
  -INDIGO-06102311022D

 26 29  0  0  1  0  0  0  0  0999 V2000
    7.5658    1.2375    0.0000 C   0  0  0  0  0  0  0  0  0  0  0  0
    6.8513    0.8250    0.0000 C   0  0  0  0  0  0  0  0  0  0  0  0
    6.1368    1.2375    0.0000 C   0  0  1  0  0  0  0  0  0  0  0  0
    6.1368    2.0625    0.0000 C   0  0  0  0  0  0  0  0  0  0  0  0
    6.8513    2.4750    0.0000 O   0  0  0  0  0  0  0  0  0  0  0  0
    5.4223    0.8250    0.0000 N   0  0  0  0  0  0  0  0  0  0  0  0
    4.7079    1.2375    0.0000 C   0  0  0  0  0  0  0  0  0  0  0  0
    4.7079    2.0625    0.0000 O   0  0  0  0  0  0  0  0  0  0  0  0
    3.9934    0.8250    0.0000 C   0  0  1  0  0  0  0  0  0  0  0  0
    3.9934    0.0000    0.0000 C   0  0  0  0  0  0  0  0  0  0  0  0
    3.2789   -0.4125    0.0000 N   0  0  0  0  0  0  0  0  0  0  0  0
    3.2789   -1.2375    0.0000 C   0  0  0  0  0  0  0  0  0  0  0  0
    2.5645    0.0000    0.0000 C   0  0  2  0  0  0  0  0  0  0  0  0
    1.8500   -0.4125    0.0000 C   0  0  0  0  0  0  0  0  0  0  0  0
    1.1355    0.0000    0.0000 C   0  0  0  0  0  0  0  0  0  0  0  0
    0.3509   -0.2549    0.0000 C   0  0  0  0  0  0  0  0  0  0  0  0
   -0.1340    0.4125    0.0000 N   0  0  0  0  0  0  0  0  0  0  0  0
   -0.9590    0.4125    0.0000 C   0  0  0  0  0  0  0  0  0  0  0  0
    0.3509    1.0799    0.0000 C   0  0  0  0  0  0  0  0  0  0  0  0
    0.1794    1.8869    0.0000 C   0  0  0  0  0  0  0  0  0  0  0  0
    0.7925    2.4389    0.0000 C   0  0  0  0  0  0  0  0  0  0  0  0
    1.5771    2.1840    0.0000 C   0  0  0  0  0  0  0  0  0  0  0  0
    1.8500    1.2375    0.0000 C   0  0  0  0  0  0  0  0  0  0  0  0
    1.1355    0.8250    0.0000 C   0  0  0  0  0  0  0  0  0  0  0  0
    2.5645    0.8250    0.0000 C   0  0  0  0  0  0  0  0  0  0  0  0
    3.2789    1.2375    0.0000 C   0  0  0  0  0  0  0  0  0  0  0  0
  1  2  1  0  0  0  0
  2  3  1  0  0  0  0
  3  4  1  0  0  0  0
  4  5  1  0  0  0  0
  3  6  1  6  0  0  0
  6  7  1  0  0  0  0
  7  8  2  0  0  0  0
  9  7  1  1  0  0  0
  9 10  1  0  0  0  0
 10 11  1  0  0  0  0
 11 12  1  0  0  0  0
 13 11  1  6  0  0  0
 13 14  1  0  0  0  0
 14 15  1  0  0  0  0
 15 16  4  0  0  0  0
 16 17  4  0  0  0  0
 17 18  1  0  0  0  0
 17 19  4  0  0  0  0
 19 20  4  0  0  0  0
 20 21  4  0  0  0  0
 21 22  4  0  0  0  0
 22 23  4  0  0  0  0
 23 24  4  0  0  0  0
 15 24  4  0  0  0  0
 19 24  4  0  0  0  0
 23 25  1  0  0  0  0
 13 25  1  0  0  0  0
 25 26  2  0  0  0  0
  9 26  1  0  0  0  0
M  END
>  <ID>
1775

>  <PREFERRED_NAME>
methysergide

>  <CAS_RN>
361-37-5

>  <SYNONYMS>
methysergide
deseril
methysergid
methysergide maleate

>  <URL>
http://drugcentral.org/drugcard/1775/view

$$$$
