metralindole
  -INDIGO-06102311092D

 19 22  0  0  0  0  0  0  0  0999 V2000
    4.7764    1.3619    0.0000 C   0  0  0  0  0  0  0  0  0  0  0  0
    4.2244    1.9750    0.0000 O   0  0  0  0  0  0  0  0  0  0  0  0
    3.4174    1.8035    0.0000 C   0  0  0  0  0  0  0  0  0  0  0  0
    2.8654    2.4166    0.0000 C   0  0  0  0  0  0  0  0  0  0  0  0
    2.0584    2.2451    0.0000 C   0  0  0  0  0  0  0  0  0  0  0  0
    1.8035    1.4604    0.0000 C   0  0  0  0  0  0  0  0  0  0  0  0
    2.3555    0.8474    0.0000 C   0  0  0  0  0  0  0  0  0  0  0  0
    3.1625    1.0189    0.0000 C   0  0  0  0  0  0  0  0  0  0  0  0
    0.9785    1.4604    0.0000 N   0  0  0  0  0  0  0  0  0  0  0  0
    0.4265    0.8474    0.0000 C   0  0  0  0  0  0  0  0  0  0  0  0
   -0.3805    1.0189    0.0000 C   0  0  0  0  0  0  0  0  0  0  0  0
   -0.6354    1.8035    0.0000 N   0  0  0  0  0  0  0  0  0  0  0  0
   -1.4424    1.9750    0.0000 C   0  0  0  0  0  0  0  0  0  0  0  0
   -0.0834    2.4166    0.0000 C   0  0  0  0  0  0  0  0  0  0  0  0
   -0.1164    3.4011    0.0000 N   0  0  0  0  0  0  0  0  0  0  0  0
    0.5511    3.8860    0.0000 C   0  0  0  0  0  0  0  0  0  0  0  0
    1.3048    3.5505    0.0000 C   0  0  0  0  0  0  0  0  0  0  0  0
    1.3910    2.7300    0.0000 C   0  0  0  0  0  0  0  0  0  0  0  0
    0.7236    2.2451    0.0000 C   0  0  0  0  0  0  0  0  0  0  0  0
  1  2  1  0  0  0  0
  2  3  1  0  0  0  0
  3  4  4  0  0  0  0
  4  5  4  0  0  0  0
  5  6  4  0  0  0  0
  6  7  4  0  0  0  0
  7  8  4  0  0  0  0
  3  8  4  0  0  0  0
  6  9  4  0  0  0  0
  9 10  1  0  0  0  0
 10 11  1  0  0  0  0
 11 12  1  0  0  0  0
 12 13  1  0  0  0  0
 12 14  1  0  0  0  0
 14 15  2  0  0  0  0
 15 16  1  0  0  0  0
 16 17  1  0  0  0  0
 17 18  1  0  0  0  0
  5 18  4  0  0  0  0
 18 19  4  0  0  0  0
  9 19  4  0  0  0  0
 14 19  1  0  0  0  0
M  END
>  <ID>
3358

>  <PREFERRED_NAME>
metralindole

>  <CAS_RN>
54188-38-4

>  <SYNONYMS>
metralindole
metralindole hydrochloride
metralindole HCl

>  <URL>
http://drugcentral.org/drugcard/3358/view

$$$$
