meturedepa
  -INDIGO-06102311102D

 18 19  0  0  0  0  0  0  0  0999 V2000
    4.8099   -1.8243    0.0000 C   0  0  0  0  0  0  0  0  0  0  0  0
    4.0954   -1.4118    0.0000 C   0  0  0  0  0  0  0  0  0  0  0  0
    4.0954   -0.5868    0.0000 O   0  0  0  0  0  0  0  0  0  0  0  0
    3.3809   -0.1743    0.0000 C   0  0  0  0  0  0  0  0  0  0  0  0
    2.6664   -0.5868    0.0000 O   0  0  0  0  0  0  0  0  0  0  0  0
    3.3809    0.6507    0.0000 N   0  0  0  0  0  0  0  0  0  0  0  0
    2.6664    1.0632    0.0000 P   0  0  0  0  0  0  0  0  0  0  0  0
    3.0789    1.7776    0.0000 O   0  0  0  0  0  0  0  0  0  0  0  0
    1.9520    1.4757    0.0000 N   0  0  0  0  0  0  0  0  0  0  0  0
    1.1270    1.4757    0.0000 C   0  0  0  0  0  0  0  0  0  0  0  0
    1.5395    2.1901    0.0000 C   0  0  0  0  0  0  0  0  0  0  0  0
    1.0663    2.8659    0.0000 C   0  0  0  0  0  0  0  0  0  0  0  0
    2.0127    2.8659    0.0000 C   0  0  0  0  0  0  0  0  0  0  0  0
    2.2539    0.3487    0.0000 N   0  0  0  0  0  0  0  0  0  0  0  0
    2.2539   -0.4763    0.0000 C   0  0  0  0  0  0  0  0  0  0  0  0
    1.5395   -0.0638    0.0000 C   0  0  0  0  0  0  0  0  0  0  0  0
    0.8637   -0.5370    0.0000 C   0  0  0  0  0  0  0  0  0  0  0  0
    0.8637    0.4094    0.0000 C   0  0  0  0  0  0  0  0  0  0  0  0
  1  2  1  0  0  0  0
  2  3  1  0  0  0  0
  3  4  1  0  0  0  0
  4  5  2  0  0  0  0
  4  6  1  0  0  0  0
  6  7  1  0  0  0  0
  7  8  2  0  0  0  0
  7  9  1  0  0  0  0
  9 10  1  0  0  0  0
 10 11  1  0  0  0  0
  9 11  1  0  0  0  0
 11 12  1  0  0  0  0
 11 13  1  0  0  0  0
  7 14  1  0  0  0  0
 14 15  1  0  0  0  0
 15 16  1  0  0  0  0
 14 16  1  0  0  0  0
 16 17  1  0  0  0  0
 16 18  1  0  0  0  0
M  END
>  <ID>
3784

>  <PREFERRED_NAME>
meturedepa

>  <CAS_RN>
1661-29-6

>  <SYNONYMS>
meturedepa
AB-132
turloc
dimethylurethimine

>  <URL>
http://drugcentral.org/drugcard/3784/view

$$$$
