micafungin
  -INDIGO-06102311022D

 89 95  0  0  1  0  0  0  0  0999 V2000
    8.3948   13.4122    0.0000 C   0  0  0  0  0  0  0  0  0  0  0  0
    8.8390   12.7170    0.0000 C   0  0  0  0  0  0  0  0  0  0  0  0
    8.4589   11.9847    0.0000 C   0  0  0  0  0  0  0  0  0  0  0  0
    8.9031   11.2895    0.0000 C   0  0  0  0  0  0  0  0  0  0  0  0
    8.5231   10.5572    0.0000 C   0  0  0  0  0  0  0  0  0  0  0  0
    8.9672    9.8620    0.0000 O   0  0  0  0  0  0  0  0  0  0  0  0
    8.5872    9.1297    0.0000 C   0  0  0  0  0  0  0  0  0  0  0  0
    9.0313    8.4345    0.0000 C   0  0  0  0  0  0  0  0  0  0  0  0
    8.6513    7.7022    0.0000 C   0  0  0  0  0  0  0  0  0  0  0  0
    7.8271    7.6652    0.0000 C   0  0  0  0  0  0  0  0  0  0  0  0
    7.3830    8.3604    0.0000 C   0  0  0  0  0  0  0  0  0  0  0  0
    7.7630    9.0927    0.0000 C   0  0  0  0  0  0  0  0  0  0  0  0
    7.4471    6.9329    0.0000 C   0  0  0  0  0  0  0  0  0  0  0  0
    7.8161    6.1951    0.0000 C   0  0  0  0  0  0  0  0  0  0  0  0
    7.2284    5.6161    0.0000 C   0  0  0  0  0  0  0  0  0  0  0  0
    6.4961    5.9961    0.0000 N   0  0  0  0  0  0  0  0  0  0  0  0
    6.6313    6.8100    0.0000 O   0  0  0  0  0  0  0  0  0  0  0  0
    7.3514    4.8003    0.0000 C   0  0  0  0  0  0  0  0  0  0  0  0
    8.1193    4.4989    0.0000 C   0  0  0  0  0  0  0  0  0  0  0  0
    8.2423    3.6831    0.0000 C   0  0  0  0  0  0  0  0  0  0  0  0
    7.5973    3.1687    0.0000 C   0  0  0  0  0  0  0  0  0  0  0  0
    6.8293    3.4701    0.0000 C   0  0  0  0  0  0  0  0  0  0  0  0
    6.7063    4.2859    0.0000 C   0  0  0  0  0  0  0  0  0  0  0  0
    7.7202    2.3530    0.0000 C   0  0  0  0  0  0  0  0  0  0  0  0
    8.4882    2.0515    0.0000 O   0  0  0  0  0  0  0  0  0  0  0  0
    7.0752    1.8386    0.0000 N   0  0  0  0  0  0  0  0  0  0  0  0
    7.1982    1.0228    0.0000 C   0  0  1  0  0  0  0  0  0  0  0  0
    8.0232    1.0228    0.0000 C   0  0  0  0  0  0  0  0  0  0  0  0
    8.8115    0.7796    0.0000 C   0  0  1  0  0  0  0  0  0  0  0  0
    9.1695    1.5229    0.0000 O   0  0  0  0  0  0  0  0  0  0  0  0
    9.4932    0.3149    0.0000 C   0  0  1  0  0  0  0  0  0  0  0  0
   10.0543    0.9196    0.0000 O   0  0  0  0  0  0  0  0  0  0  0  0
   10.0076   -0.3301    0.0000 N   0  0  0  0  0  0  0  0  0  0  0  0
   10.3090   -1.0981    0.0000 C   0  0  0  0  0  0  0  0  0  0  0  0
   11.1133   -0.9145    0.0000 O   0  0  0  0  0  0  0  0  0  0  0  0
   10.3706   -1.9208    0.0000 C   0  0  2  0  0  0  0  0  0  0  0  0
   11.1923   -1.8468    0.0000 C   0  0  1  0  0  0  0  0  0  0  0  0
   11.6154   -1.1386    0.0000 O   0  0  0  0  0  0  0  0  0  0  0  0
   11.5165   -2.6055    0.0000 C   0  0  1  0  0  0  0  0  0  0  0  0
   12.3209   -2.7890    0.0000 C   0  0  0  0  0  0  0  0  0  0  0  0
   10.8953   -3.1483    0.0000 C   0  0  0  0  0  0  0  0  0  0  0  0
   10.1870   -2.7251    0.0000 N   0  0  0  0  0  0  0  0  0  0  0  0
    9.7745   -3.4396    0.0000 C   0  0  0  0  0  0  0  0  0  0  0  0
   10.4195   -3.9540    0.0000 O   0  0  0  0  0  0  0  0  0  0  0  0
    9.1698   -4.0007    0.0000 C   0  0  1  0  0  0  0  0  0  0  0  0
    8.4265   -4.3587    0.0000 N   0  0  0  0  0  0  0  0  0  0  0  0
    7.6107   -4.4816    0.0000 C   0  0  0  0  0  0  0  0  0  0  0  0
    7.6107   -5.3066    0.0000 O   0  0  0  0  0  0  0  0  0  0  0  0
    6.7949   -4.3587    0.0000 C   0  0  0  0  0  0  0  0  0  0  0  0
    6.0516   -4.0007    0.0000 N   0  0  0  0  0  0  0  0  0  0  0  0
    5.4468   -3.4396    0.0000 C   0  0  0  0  0  0  0  0  0  0  0  0
    4.8018   -3.9540    0.0000 O   0  0  0  0  0  0  0  0  0  0  0  0
    5.0343   -2.7251    0.0000 C   0  0  2  0  0  0  0  0  0  0  0  0
    4.3261   -3.1483    0.0000 C   0  0  0  0  0  0  0  0  0  0  0  0
    3.7048   -2.6055    0.0000 C   0  0  1  0  0  0  0  0  0  0  0  0
    2.9005   -2.7890    0.0000 O   0  0  0  0  0  0  0  0  0  0  0  0
    4.0291   -1.8468    0.0000 C   0  0  0  0  0  0  0  0  0  0  0  0
    4.8507   -1.9208    0.0000 N   0  0  0  0  0  0  0  0  0  0  0  0
    4.9124   -1.0981    0.0000 C   0  0  0  0  0  0  0  0  0  0  0  0
    4.1081   -0.9145    0.0000 O   0  0  0  0  0  0  0  0  0  0  0  0
    5.2138   -0.3301    0.0000 C   0  0  0  0  0  0  0  0  0  0  0  0
    5.7282    0.3149    0.0000 N   0  0  0  0  0  0  0  0  0  0  0  0
    6.4098    0.7796    0.0000 C   0  0  0  0  0  0  0  0  0  0  0  0
    6.0519    1.5229    0.0000 O   0  0  0  0  0  0  0  0  0  0  0  0
    4.4993    0.0824    0.0000 C   0  0  1  0  0  0  0  0  0  0  0  0
    4.4993    0.9074    0.0000 C   0  0  0  0  0  0  0  0  0  0  0  0
    3.7849   -0.3301    0.0000 O   0  0  0  0  0  0  0  0  0  0  0  0
    6.5517   -5.1470    0.0000 C   0  0  2  0  0  0  0  0  0  0  0  0
    7.1129   -5.7518    0.0000 O   0  0  0  0  0  0  0  0  0  0  0  0
    5.7474   -5.3306    0.0000 C   0  0  1  0  0  0  0  0  0  0  0  0
    5.1863   -4.7258    0.0000 O   0  0  0  0  0  0  0  0  0  0  0  0
    5.5042   -6.1190    0.0000 C   0  0  0  0  0  0  0  0  0  0  0  0
    4.6999   -6.3025    0.0000 C   0  0  0  0  0  0  0  0  0  0  0  0
    4.4567   -7.0909    0.0000 C   0  0  0  0  0  0  0  0  0  0  0  0
    3.6524   -7.2745    0.0000 O   0  0  0  0  0  0  0  0  0  0  0  0
    3.0913   -6.6697    0.0000 S   0  0  0  0  0  0  0  0  0  0  0  0
    2.5301   -6.0649    0.0000 O   0  0  0  0  0  0  0  0  0  0  0  0
    2.4865   -7.2308    0.0000 O   0  0  0  0  0  0  0  0  0  0  0  0
    3.6961   -6.1086    0.0000 O   0  0  0  0  0  0  0  0  0  0  0  0
    5.0179   -7.6957    0.0000 C   0  0  0  0  0  0  0  0  0  0  0  0
    4.7747   -8.4840    0.0000 O   0  0  0  0  0  0  0  0  0  0  0  0
    5.8222   -7.5121    0.0000 C   0  0  0  0  0  0  0  0  0  0  0  0
    6.0654   -6.7237    0.0000 C   0  0  0  0  0  0  0  0  0  0  0  0
    9.6345   -4.6824    0.0000 C   0  0  2  0  0  0  0  0  0  0  0  0
   10.4572   -4.6207    0.0000 O   0  0  0  0  0  0  0  0  0  0  0  0
    9.2766   -5.4257    0.0000 C   0  0  0  0  0  0  0  0  0  0  0  0
    9.7413   -6.1073    0.0000 C   0  0  0  0  0  0  0  0  0  0  0  0
   10.5640   -6.0457    0.0000 N   0  0  0  0  0  0  0  0  0  0  0  0
    9.3833   -6.8506    0.0000 O   0  0  0  0  0  0  0  0  0  0  0  0
  1  2  1  0  0  0  0
  2  3  1  0  0  0  0
  3  4  1  0  0  0  0
  4  5  1  0  0  0  0
  5  6  1  0  0  0  0
  6  7  1  0  0  0  0
  7  8  4  0  0  0  0
  8  9  4  0  0  0  0
  9 10  4  0  0  0  0
 10 11  4  0  0  0  0
 11 12  4  0  0  0  0
  7 12  4  0  0  0  0
 10 13  1  0  0  0  0
 13 14  4  0  0  0  0
 14 15  4  0  0  0  0
 15 16  4  0  0  0  0
 16 17  4  0  0  0  0
 13 17  4  0  0  0  0
 15 18  1  0  0  0  0
 18 19  4  0  0  0  0
 19 20  4  0  0  0  0
 20 21  4  0  0  0  0
 21 22  4  0  0  0  0
 22 23  4  0  0  0  0
 18 23  4  0  0  0  0
 21 24  1  0  0  0  0
 24 25  2  0  0  0  0
 24 26  1  0  0  0  0
 27 26  1  1  0  0  0
 27 28  1  0  0  0  0
 28 29  1  0  0  0  0
 29 30  1  1  0  0  0
 29 31  1  0  0  0  0
 31 32  1  1  0  0  0
 31 33  1  0  0  0  0
 33 34  1  0  0  0  0
 34 35  2  0  0  0  0
 34 36  1  0  0  0  0
 36 37  1  0  0  0  0
 37 38  1  1  0  0  0
 37 39  1  0  0  0  0
 39 40  1  1  0  0  0
 39 41  1  0  0  0  0
 41 42  1  0  0  0  0
 36 42  1  6  0  0  0
 42 43  1  0  0  0  0
 43 44  2  0  0  0  0
 43 45  1  0  0  0  0
 45 46  1  0  0  0  0
 46 47  1  0  0  0  0
 47 48  2  0  0  0  0
 47 49  1  0  0  0  0
 49 50  1  0  0  0  0
 50 51  1  0  0  0  0
 51 52  2  0  0  0  0
 51 53  1  0  0  0  0
 53 54  1  0  0  0  0
 54 55  1  0  0  0  0
 55 56  1  1  0  0  0
 55 57  1  0  0  0  0
 57 58  1  0  0  0  0
 53 58  1  6  0  0  0
 58 59  1  0  0  0  0
 59 60  2  0  0  0  0
 59 61  1  0  0  0  0
 61 62  1  0  0  0  0
 62 63  1  0  0  0  0
 27 63  1  0  0  0  0
 63 64  2  0  0  0  0
 61 65  1  0  0  0  0
 65 66  1  0  0  0  0
 65 67  1  6  0  0  0
 49 68  1  0  0  0  0
 68 69  1  6  0  0  0
 68 70  1  0  0  0  0
 70 71  1  6  0  0  0
 70 72  1  0  0  0  0
 72 73  4  0  0  0  0
 73 74  4  0  0  0  0
 74 75  1  0  0  0  0
 75 76  1  0  0  0  0
 76 77  1  0  0  0  0
 76 78  2  0  0  0  0
 76 79  2  0  0  0  0
 74 80  4  0  0  0  0
 80 81  1  0  0  0  0
 80 82  4  0  0  0  0
 82 83  4  0  0  0  0
 72 83  4  0  0  0  0
 45 84  1  6  0  0  0
 84 85  1  6  0  0  0
 84 86  1  0  0  0  0
 86 87  1  0  0  0  0
 87 88  1  0  0  0  0
 87 89  2  0  0  0  0
M  END
>  <ID>
1798

>  <PREFERRED_NAME>
micafungin

>  <CAS_RN>
235114-32-6

>  <SYNONYMS>
micafungin
mycamine
micafungin sodium
FK-463
FK463

>  <URL>
http://drugcentral.org/drugcard/1798/view

$$$$
