mifamurtide
  -INDIGO-06102311072D

 85 85  0  0  1  0  0  0  0  0999 V2000
   12.8605  -23.1000    0.0000 C   0  0  0  0  0  0  0  0  0  0  0  0
   12.8605  -23.9250    0.0000 C   0  0  0  0  0  0  0  0  0  0  0  0
   13.5749  -24.3375    0.0000 C   0  0  0  0  0  0  0  0  0  0  0  0
   13.5749  -25.1625    0.0000 C   0  0  0  0  0  0  0  0  0  0  0  0
   14.2894  -25.5750    0.0000 C   0  0  0  0  0  0  0  0  0  0  0  0
   14.2894  -26.4000    0.0000 C   0  0  0  0  0  0  0  0  0  0  0  0
   15.0039  -26.8125    0.0000 C   0  0  0  0  0  0  0  0  0  0  0  0
   15.0039  -27.6375    0.0000 C   0  0  0  0  0  0  0  0  0  0  0  0
   15.7184  -28.0500    0.0000 C   0  0  0  0  0  0  0  0  0  0  0  0
   15.7184  -28.8750    0.0000 C   0  0  0  0  0  0  0  0  0  0  0  0
   16.4328  -29.2875    0.0000 C   0  0  0  0  0  0  0  0  0  0  0  0
   16.4328  -30.1125    0.0000 C   0  0  0  0  0  0  0  0  0  0  0  0
   17.1473  -30.5250    0.0000 C   0  0  0  0  0  0  0  0  0  0  0  0
   17.1473  -31.3500    0.0000 C   0  0  0  0  0  0  0  0  0  0  0  0
   17.8618  -31.7625    0.0000 C   0  0  0  0  0  0  0  0  0  0  0  0
   17.8618  -32.5875    0.0000 C   0  0  0  0  0  0  0  0  0  0  0  0
   17.1473  -33.0000    0.0000 O   0  0  0  0  0  0  0  0  0  0  0  0
   18.5762  -33.0000    0.0000 O   0  0  0  0  0  0  0  0  0  0  0  0
   18.5762  -33.8250    0.0000 C   0  0  0  0  0  0  0  0  0  0  0  0
   19.2907  -34.2375    0.0000 C   0  0  2  0  0  0  0  0  0  0  0  0
   19.2907  -35.0625    0.0000 C   0  0  0  0  0  0  0  0  0  0  0  0
   20.0052  -35.4750    0.0000 O   0  0  0  0  0  0  0  0  0  0  0  0
   20.0052  -36.3000    0.0000 P   0  0  0  0  0  0  0  0  0  0  0  0
   19.1802  -36.3000    0.0000 O   0  0  0  0  0  0  0  0  0  0  0  0
   20.8302  -36.3000    0.0000 O   0  0  0  0  0  0  0  0  0  0  0  0
   20.0052  -37.1250    0.0000 O   0  0  0  0  0  0  0  0  0  0  0  0
   20.7197  -37.5375    0.0000 C   0  0  0  0  0  0  0  0  0  0  0  0
   20.7197  -38.3625    0.0000 C   0  0  0  0  0  0  0  0  0  0  0  0
   21.4341  -38.7750    0.0000 N   0  0  0  0  0  0  0  0  0  0  0  0
   21.4341  -39.6000    0.0000 C   0  0  0  0  0  0  0  0  0  0  0  0
   20.7197  -40.0125    0.0000 O   0  0  0  0  0  0  0  0  0  0  0  0
   22.1486  -40.0125    0.0000 C   0  0  2  0  0  0  0  0  0  0  0  0
   22.8631  -39.6000    0.0000 C   0  0  0  0  0  0  0  0  0  0  0  0
   22.1486  -40.8375    0.0000 N   0  0  0  0  0  0  0  0  0  0  0  0
   22.8631  -41.2500    0.0000 C   0  0  0  0  0  0  0  0  0  0  0  0
   23.5775  -40.8375    0.0000 O   0  0  0  0  0  0  0  0  0  0  0  0
   22.8631  -42.0750    0.0000 C   0  0  0  0  0  0  0  0  0  0  0  0
   23.5775  -42.4875    0.0000 C   0  0  0  0  0  0  0  0  0  0  0  0
   23.5775  -43.3125    0.0000 C   0  0  1  0  0  0  0  0  0  0  0  0
   24.2920  -43.7250    0.0000 N   0  0  0  0  0  0  0  0  0  0  0  0
   24.2920  -44.5500    0.0000 C   0  0  0  0  0  0  0  0  0  0  0  0
   23.5775  -44.9625    0.0000 O   0  0  0  0  0  0  0  0  0  0  0  0
   25.0065  -44.9625    0.0000 C   0  0  2  0  0  0  0  0  0  0  0  0
   25.7210  -44.5500    0.0000 C   0  0  0  0  0  0  0  0  0  0  0  0
   25.0065  -45.7875    0.0000 N   0  0  0  0  0  0  0  0  0  0  0  0
   25.7210  -46.2000    0.0000 C   0  0  0  0  0  0  0  0  0  0  0  0
   26.4354  -45.7875    0.0000 O   0  0  0  0  0  0  0  0  0  0  0  0
   25.7210  -47.0250    0.0000 C   0  0  1  0  0  0  0  0  0  0  0  0
   25.0065  -47.4375    0.0000 C   0  0  0  0  0  0  0  0  0  0  0  0
   26.4354  -47.4375    0.0000 O   0  0  0  0  0  0  0  0  0  0  0  0
   26.4354  -48.2625    0.0000 C   0  0  1  0  0  0  0  0  0  0  0  0
   27.1499  -48.6750    0.0000 C   0  0  2  0  0  0  0  0  0  0  0  0
   27.8644  -48.2625    0.0000 O   0  0  0  0  0  0  0  0  0  0  0  0
   27.1499  -49.5000    0.0000 C   0  0  1  0  0  0  0  0  0  0  0  0
   27.8644  -49.9125    0.0000 C   0  0  0  0  0  0  0  0  0  0  0  0
   28.5788  -49.5000    0.0000 O   0  0  0  0  0  0  0  0  0  0  0  0
   26.4354  -49.9125    0.0000 O   0  0  0  0  0  0  0  0  0  0  0  0
   25.7210  -49.5000    0.0000 C   0  0  0  0  0  0  0  0  0  0  0  0
   25.0065  -49.9125    0.0000 O   0  0  0  0  0  0  0  0  0  0  0  0
   25.7210  -48.6750    0.0000 C   0  0  2  0  0  0  0  0  0  0  0  0
   25.0065  -48.2625    0.0000 N   0  0  0  0  0  0  0  0  0  0  0  0
   24.2920  -48.6750    0.0000 C   0  0  0  0  0  0  0  0  0  0  0  0
   24.2920  -49.5000    0.0000 C   0  0  0  0  0  0  0  0  0  0  0  0
   23.5775  -48.2625    0.0000 O   0  0  0  0  0  0  0  0  0  0  0  0
   22.8631  -43.7250    0.0000 C   0  0  0  0  0  0  0  0  0  0  0  0
   22.8631  -44.5500    0.0000 N   0  0  0  0  0  0  0  0  0  0  0  0
   22.1486  -43.3125    0.0000 O   0  0  0  0  0  0  0  0  0  0  0  0
   20.0052  -33.8250    0.0000 O   0  0  0  0  0  0  0  0  0  0  0  0
   20.0052  -33.0000    0.0000 C   0  0  0  0  0  0  0  0  0  0  0  0
   19.2907  -32.5875    0.0000 O   0  0  0  0  0  0  0  0  0  0  0  0
   20.7197  -32.5875    0.0000 C   0  0  0  0  0  0  0  0  0  0  0  0
   20.7197  -31.7625    0.0000 C   0  0  0  0  0  0  0  0  0  0  0  0
   21.4341  -31.3500    0.0000 C   0  0  0  0  0  0  0  0  0  0  0  0
   21.4341  -30.5250    0.0000 C   0  0  0  0  0  0  0  0  0  0  0  0
   22.1486  -30.1125    0.0000 C   0  0  0  0  0  0  0  0  0  0  0  0
   22.1486  -29.2875    0.0000 C   0  0  0  0  0  0  0  0  0  0  0  0
   22.8631  -28.8750    0.0000 C   0  0  0  0  0  0  0  0  0  0  0  0
   22.8631  -28.0500    0.0000 C   0  0  0  0  0  0  0  0  0  0  0  0
   23.5775  -27.6375    0.0000 C   0  0  0  0  0  0  0  0  0  0  0  0
   23.5775  -26.8125    0.0000 C   0  0  0  0  0  0  0  0  0  0  0  0
   24.2920  -26.4000    0.0000 C   0  0  0  0  0  0  0  0  0  0  0  0
   24.2920  -25.5750    0.0000 C   0  0  0  0  0  0  0  0  0  0  0  0
   25.0065  -25.1625    0.0000 C   0  0  0  0  0  0  0  0  0  0  0  0
   25.0065  -24.3375    0.0000 C   0  0  0  0  0  0  0  0  0  0  0  0
   25.7210  -23.9250    0.0000 C   0  0  0  0  0  0  0  0  0  0  0  0
  1  2  1  0  0  0  0
  2  3  1  0  0  0  0
  3  4  1  0  0  0  0
  4  5  1  0  0  0  0
  5  6  1  0  0  0  0
  6  7  1  0  0  0  0
  7  8  1  0  0  0  0
  8  9  1  0  0  0  0
  9 10  1  0  0  0  0
 10 11  1  0  0  0  0
 11 12  1  0  0  0  0
 12 13  1  0  0  0  0
 13 14  1  0  0  0  0
 14 15  1  0  0  0  0
 15 16  1  0  0  0  0
 16 17  2  0  0  0  0
 16 18  1  0  0  0  0
 18 19  1  0  0  0  0
 19 20  1  0  0  0  0
 20 21  1  0  0  0  0
 21 22  1  0  0  0  0
 22 23  1  0  0  0  0
 23 24  1  0  0  0  0
 23 25  2  0  0  0  0
 23 26  1  0  0  0  0
 26 27  1  0  0  0  0
 27 28  1  0  0  0  0
 28 29  1  0  0  0  0
 29 30  1  0  0  0  0
 30 31  2  0  0  0  0
 30 32  1  0  0  0  0
 32 33  1  6  0  0  0
 32 34  1  0  0  0  0
 34 35  1  0  0  0  0
 35 36  2  0  0  0  0
 35 37  1  0  0  0  0
 37 38  1  0  0  0  0
 38 39  1  0  0  0  0
 39 40  1  1  0  0  0
 40 41  1  0  0  0  0
 41 42  2  0  0  0  0
 41 43  1  0  0  0  0
 43 44  1  6  0  0  0
 43 45  1  0  0  0  0
 45 46  1  0  0  0  0
 46 47  2  0  0  0  0
 46 48  1  0  0  0  0
 48 49  1  6  0  0  0
 48 50  1  0  0  0  0
 51 50  1  1  0  0  0
 51 52  1  0  0  0  0
 52 53  1  6  0  0  0
 52 54  1  0  0  0  0
 54 55  1  1  0  0  0
 55 56  1  0  0  0  0
 54 57  1  0  0  0  0
 57 58  1  0  0  0  0
 58 59  1  0  0  0  0
 58 60  1  0  0  0  0
 51 60  1  0  0  0  0
 60 61  1  6  0  0  0
 61 62  1  0  0  0  0
 62 63  1  0  0  0  0
 62 64  2  0  0  0  0
 39 65  1  0  0  0  0
 65 66  1  0  0  0  0
 65 67  2  0  0  0  0
 20 68  1  1  0  0  0
 68 69  1  0  0  0  0
 69 70  2  0  0  0  0
 69 71  1  0  0  0  0
 71 72  1  0  0  0  0
 72 73  1  0  0  0  0
 73 74  1  0  0  0  0
 74 75  1  0  0  0  0
 75 76  1  0  0  0  0
 76 77  1  0  0  0  0
 77 78  1  0  0  0  0
 78 79  1  0  0  0  0
 79 80  1  0  0  0  0
 80 81  1  0  0  0  0
 81 82  1  0  0  0  0
 82 83  1  0  0  0  0
 83 84  1  0  0  0  0
 84 85  1  0  0  0  0
M  END
>  <ID>
2960

>  <PREFERRED_NAME>
mifamurtide

>  <CAS_RN>
90825-43-7

>  <SYNONYMS>
mifamurtide
MTP-PE
mifamurtide hydrate
muramyl tripeptide phosphatidyl ethanolamine
mepact
mifamurtide sodium
junovan
L-MTP-PE

>  <URL>
http://drugcentral.org/drugcard/2960/view

$$$$
