miltefosine
  -INDIGO-06102311022D

 27 26  0  0  0  0  0  0  0  0999 V2000
    5.9961   -4.2868    0.0000 C   0  0  0  0  0  0  0  0  0  0  0  0
    6.7105   -4.6993    0.0000 C   0  0  0  0  0  0  0  0  0  0  0  0
    7.4250   -4.2868    0.0000 C   0  0  0  0  0  0  0  0  0  0  0  0
    8.1395   -4.6993    0.0000 C   0  0  0  0  0  0  0  0  0  0  0  0
    8.8539   -4.2868    0.0000 C   0  0  0  0  0  0  0  0  0  0  0  0
    9.5684   -4.6993    0.0000 C   0  0  0  0  0  0  0  0  0  0  0  0
   10.2829   -4.2868    0.0000 C   0  0  0  0  0  0  0  0  0  0  0  0
   10.9974   -4.6993    0.0000 C   0  0  0  0  0  0  0  0  0  0  0  0
   11.7118   -4.2868    0.0000 C   0  0  0  0  0  0  0  0  0  0  0  0
   12.4263   -4.6993    0.0000 C   0  0  0  0  0  0  0  0  0  0  0  0
   13.1408   -4.2868    0.0000 C   0  0  0  0  0  0  0  0  0  0  0  0
   13.8552   -4.6993    0.0000 C   0  0  0  0  0  0  0  0  0  0  0  0
   14.5697   -4.2868    0.0000 C   0  0  0  0  0  0  0  0  0  0  0  0
   15.2842   -4.6993    0.0000 C   0  0  0  0  0  0  0  0  0  0  0  0
   15.9987   -4.2868    0.0000 C   0  0  0  0  0  0  0  0  0  0  0  0
   16.7131   -4.6993    0.0000 C   0  0  0  0  0  0  0  0  0  0  0  0
   17.4276   -4.2868    0.0000 O   0  0  0  0  0  0  0  0  0  0  0  0
   18.1421   -4.6993    0.0000 P   0  0  0  0  0  0  0  0  0  0  0  0
   17.7296   -5.4138    0.0000 O   0  0  0  0  0  0  0  0  0  0  0  0
   18.5546   -3.9849    0.0000 O   0  0  0  0  0  0  0  0  0  0  0  0
   18.8565   -5.1118    0.0000 O   0  0  0  0  0  0  0  0  0  0  0  0
   19.5710   -4.6993    0.0000 C   0  0  0  0  0  0  0  0  0  0  0  0
   20.2855   -5.1118    0.0000 C   0  0  0  0  0  0  0  0  0  0  0  0
   20.9999   -4.6993    0.0000 N   0  0  0  0  0  0  0  0  0  0  0  0
   21.7144   -4.2868    0.0000 C   0  0  0  0  0  0  0  0  0  0  0  0
   21.4124   -5.4138    0.0000 C   0  0  0  0  0  0  0  0  0  0  0  0
   20.5874   -3.9849    0.0000 C   0  0  0  0  0  0  0  0  0  0  0  0
  1  2  1  0  0  0  0
  2  3  1  0  0  0  0
  3  4  1  0  0  0  0
  4  5  1  0  0  0  0
  5  6  1  0  0  0  0
  6  7  1  0  0  0  0
  7  8  1  0  0  0  0
  8  9  1  0  0  0  0
  9 10  1  0  0  0  0
 10 11  1  0  0  0  0
 11 12  1  0  0  0  0
 12 13  1  0  0  0  0
 13 14  1  0  0  0  0
 14 15  1  0  0  0  0
 15 16  1  0  0  0  0
 16 17  1  0  0  0  0
 17 18  1  0  0  0  0
 18 19  1  0  0  0  0
 18 20  2  0  0  0  0
 18 21  1  0  0  0  0
 21 22  1  0  0  0  0
 22 23  1  0  0  0  0
 23 24  1  0  0  0  0
 24 25  1  0  0  0  0
 24 26  1  0  0  0  0
 24 27  1  0  0  0  0
M  CHG  2  19  -1  24   1
M  END
>  <ID>
1810

>  <PREFERRED_NAME>
miltefosine

>  <CAS_RN>
58066-85-6

>  <SYNONYMS>
miltefosine
impavido
hexadecylphosphocholine
hexadecylphosphorylcholine
miltefos

>  <URL>
http://drugcentral.org/drugcard/1810/view

$$$$
