mitiglinide
  -INDIGO-06102311022D

 23 25  0  0  1  0  0  0  0  0999 V2000
    4.3729   -3.6702    0.0000 O   0  0  0  0  0  0  0  0  0  0  0  0
    3.6584   -3.2577    0.0000 C   0  0  0  0  0  0  0  0  0  0  0  0
    2.9440   -3.6702    0.0000 O   0  0  0  0  0  0  0  0  0  0  0  0
    3.6584   -2.4327    0.0000 C   0  0  2  0  0  0  0  0  0  0  0  0
    2.9440   -2.0202    0.0000 C   0  0  0  0  0  0  0  0  0  0  0  0
    2.2295   -2.4327    0.0000 C   0  0  0  0  0  0  0  0  0  0  0  0
    2.2295   -3.2577    0.0000 O   0  0  0  0  0  0  0  0  0  0  0  0
    1.5150   -2.0202    0.0000 N   0  0  0  0  0  0  0  0  0  0  0  0
    0.7614   -2.3557    0.0000 C   0  0  0  0  0  0  0  0  0  0  0  0
    0.2093   -1.7426    0.0000 C   0  0  1  0  0  0  0  0  0  0  0  0
   -0.6157   -1.7426    0.0000 C   0  0  0  0  0  0  0  0  0  0  0  0
   -1.0282   -1.0282    0.0000 C   0  0  0  0  0  0  0  0  0  0  0  0
   -0.6157   -0.3137    0.0000 C   0  0  0  0  0  0  0  0  0  0  0  0
    0.2093   -0.3137    0.0000 C   0  0  0  0  0  0  0  0  0  0  0  0
    0.6218   -1.0282    0.0000 C   0  0  1  0  0  0  0  0  0  0  0  0
    1.4288   -1.1997    0.0000 C   0  0  0  0  0  0  0  0  0  0  0  0
    4.3729   -2.0202    0.0000 C   0  0  0  0  0  0  0  0  0  0  0  0
    5.0874   -2.4327    0.0000 C   0  0  0  0  0  0  0  0  0  0  0  0
    5.8019   -2.0202    0.0000 C   0  0  0  0  0  0  0  0  0  0  0  0
    6.5163   -2.4327    0.0000 C   0  0  0  0  0  0  0  0  0  0  0  0
    6.5163   -3.2577    0.0000 C   0  0  0  0  0  0  0  0  0  0  0  0
    5.8019   -3.6702    0.0000 C   0  0  0  0  0  0  0  0  0  0  0  0
    5.0874   -3.2577    0.0000 C   0  0  0  0  0  0  0  0  0  0  0  0
  1  2  1  0  0  0  0
  2  3  2  0  0  0  0
  4  2  1  6  0  0  0
  4  5  1  0  0  0  0
  5  6  1  0  0  0  0
  6  7  2  0  0  0  0
  6  8  1  0  0  0  0
  8  9  1  0  0  0  0
 10  9  1  1  0  0  0
 10 11  1  0  0  0  0
 11 12  1  0  0  0  0
 12 13  1  0  0  0  0
 13 14  1  0  0  0  0
 14 15  1  0  0  0  0
 10 15  1  0  0  0  0
 15 16  1  1  0  0  0
  8 16  1  0  0  0  0
  4 17  1  0  0  0  0
 17 18  1  0  0  0  0
 18 19  4  0  0  0  0
 19 20  4  0  0  0  0
 20 21  4  0  0  0  0
 21 22  4  0  0  0  0
 22 23  4  0  0  0  0
 18 23  4  0  0  0  0
M  END
>  <ID>
1818

>  <PREFERRED_NAME>
mitiglinide

>  <CAS_RN>
145375-43-5

>  <SYNONYMS>
mitiglinide
mitiglinide calcium
mitiglinide calcium hydrate
S 21403
KAD-1229

>  <URL>
http://drugcentral.org/drugcard/1818/view

$$$$
