mivotilate
  -INDIGO-06102311022D

 20 21  0  0  0  0  0  0  0  0999 V2000
    4.0170   -1.6340    0.0000 C   0  0  0  0  0  0  0  0  0  0  0  0
    3.3025   -1.2215    0.0000 C   0  0  0  0  0  0  0  0  0  0  0  0
    3.3025   -0.3965    0.0000 C   0  0  0  0  0  0  0  0  0  0  0  0
    2.5880   -1.6340    0.0000 O   0  0  0  0  0  0  0  0  0  0  0  0
    1.8736   -1.2215    0.0000 C   0  0  0  0  0  0  0  0  0  0  0  0
    1.8736   -0.3965    0.0000 O   0  0  0  0  0  0  0  0  0  0  0  0
    1.1591   -1.6340    0.0000 C   0  0  0  0  0  0  0  0  0  0  0  0
    0.4446   -1.2215    0.0000 C   0  0  0  0  0  0  0  0  0  0  0  0
    0.4446   -0.3965    0.0000 O   0  0  0  0  0  0  0  0  0  0  0  0
   -0.2698   -1.6340    0.0000 N   0  0  0  0  0  0  0  0  0  0  0  0
   -0.9843   -1.2215    0.0000 C   0  0  0  0  0  0  0  0  0  0  0  0
   -1.7380   -1.5570    0.0000 N   0  0  0  0  0  0  0  0  0  0  0  0
   -2.2900   -0.9439    0.0000 C   0  0  0  0  0  0  0  0  0  0  0  0
   -3.1105   -1.0302    0.0000 C   0  0  0  0  0  0  0  0  0  0  0  0
   -1.8775   -0.2295    0.0000 C   0  0  0  0  0  0  0  0  0  0  0  0
   -1.0706   -0.4010    0.0000 S   0  0  0  0  0  0  0  0  0  0  0  0
    1.1591   -2.4590    0.0000 C   0  0  0  0  0  0  0  0  0  0  0  0
    1.7425   -3.0423    0.0000 S   0  0  0  0  0  0  0  0  0  0  0  0
    1.1591   -3.6257    0.0000 C   0  0  0  0  0  0  0  0  0  0  0  0
    0.5757   -3.0423    0.0000 S   0  0  0  0  0  0  0  0  0  0  0  0
  1  2  1  0  0  0  0
  2  3  1  0  0  0  0
  2  4  1  0  0  0  0
  4  5  1  0  0  0  0
  5  6  2  0  0  0  0
  5  7  1  0  0  0  0
  7  8  1  0  0  0  0
  8  9  2  0  0  0  0
  8 10  1  0  0  0  0
 10 11  1  0  0  0  0
 11 12  4  0  0  0  0
 12 13  4  0  0  0  0
 13 14  1  0  0  0  0
 13 15  4  0  0  0  0
 15 16  4  0  0  0  0
 11 16  4  0  0  0  0
  7 17  2  0  0  0  0
 17 18  1  0  0  0  0
 18 19  1  0  0  0  0
 19 20  1  0  0  0  0
 17 20  1  0  0  0  0
M  END
>  <ID>
1823

>  <PREFERRED_NAME>
mivotilate

>  <CAS_RN>
130112-42-4

>  <SYNONYMS>
mivotilate

>  <URL>
http://drugcentral.org/drugcard/1823/view

$$$$
