morphine
  -INDIGO-06102311022D

 21 25  0  0  1  0  0  0  0  0999 V2000
   -1.2926    1.0341    0.0000 C   0  0  0  0  0  0  0  0  0  0  0  0
   -0.7132    0.4469    0.0000 N   0  0  0  0  0  0  0  0  0  0  0  0
   -0.9533   -0.3842    0.0000 C   0  0  0  0  0  0  0  0  0  0  0  0
   -0.1481   -0.9069    0.0000 C   0  0  0  0  0  0  0  0  0  0  0  0
    0.7114   -0.6779    0.0000 C   0  0  2  0  0  0  0  0  0  0  0  0
    0.7075   -1.5154    0.0000 C   0  0  1  0  0  0  0  0  0  0  0  0
    1.5328   -1.7025    0.0000 O   0  0  0  0  0  0  0  0  0  0  0  0
    1.9963   -0.9898    0.0000 C   0  0  0  0  0  0  0  0  0  0  0  0
    2.7953   -0.7526    0.0000 C   0  0  0  0  0  0  0  0  0  0  0  0
    3.3826   -1.3320    0.0000 O   0  0  0  0  0  0  0  0  0  0  0  0
    3.0223    0.0515    0.0000 C   0  0  0  0  0  0  0  0  0  0  0  0
    2.4410    0.6498    0.0000 C   0  0  0  0  0  0  0  0  0  0  0  0
    1.6258    0.4801    0.0000 C   0  0  0  0  0  0  0  0  0  0  0  0
    0.9237    0.9936    0.0000 C   0  0  0  0  0  0  0  0  0  0  0  0
    0.1278    0.6776    0.0000 C   0  0  2  0  0  0  0  0  0  0  0  0
    0.3741   -0.0735    0.0000 C   0  0  2  0  0  0  0  0  0  0  0  0
   -0.4085   -0.3330    0.0000 C   0  0  0  0  0  0  0  0  0  0  0  0
   -0.7429   -1.1850    0.0000 C   0  0  0  0  0  0  0  0  0  0  0  0
   -0.1167   -1.7604    0.0000 C   0  0  2  0  0  0  0  0  0  0  0  0
   -0.3024   -2.5642    0.0000 O   0  0  0  0  0  0  0  0  0  0  0  0
    1.4685   -0.3571    0.0000 C   0  0  0  0  0  0  0  0  0  0  0  0
  1  2  1  0  0  0  0
  2  3  1  0  0  0  0
  3  4  1  0  0  0  0
  4  5  1  0  0  0  0
  5  6  1  0  0  0  0
  6  7  1  1  0  0  0
  7  8  1  0  0  0  0
  8  9  4  0  0  0  0
  9 10  1  0  0  0  0
  9 11  4  0  0  0  0
 11 12  4  0  0  0  0
 12 13  4  0  0  0  0
 13 14  1  0  0  0  0
 14 15  1  0  0  0  0
 15  2  1  6  0  0  0
 15 16  1  0  0  0  0
  5 16  1  0  0  0  0
 16 17  1  1  0  0  0
 17 18  2  0  0  0  0
 18 19  1  0  0  0  0
  6 19  1  0  0  0  0
 19 20  1  1  0  0  0
 13 21  4  0  0  0  0
  5 21  1  6  0  0  0
  8 21  4  0  0  0  0
M  END
>  <ID>
1845

>  <PREFERRED_NAME>
morphine

>  <CAS_RN>
57-27-2

>  <SYNONYMS>
morphine
morphine hydrochloride
morphin
morphina
morphine sulfate
morphine liposomal
morphine sulfate hydrate
morphine HCl

>  <URL>
http://drugcentral.org/drugcard/1845/view

$$$$
