mosapramine
  -INDIGO-06102311022D

 34 39  0  0  0  0  0  0  0  0999 V2000
   -0.0034   -2.2414    0.0000 Cl  0  0  0  0  0  0  0  0  0  0  0  0
    0.6014   -1.6803    0.0000 C   0  0  0  0  0  0  0  0  0  0  0  0
    0.4178   -0.8760    0.0000 C   0  0  0  0  0  0  0  0  0  0  0  0
    1.0226   -0.3148    0.0000 C   0  0  0  0  0  0  0  0  0  0  0  0
    1.8109   -0.5580    0.0000 C   0  0  0  0  0  0  0  0  0  0  0  0
    2.3253    0.0870    0.0000 C   0  0  0  0  0  0  0  0  0  0  0  0
    3.1503    0.0870    0.0000 C   0  0  0  0  0  0  0  0  0  0  0  0
    3.6647   -0.5580    0.0000 C   0  0  0  0  0  0  0  0  0  0  0  0
    3.4811   -1.3623    0.0000 C   0  0  0  0  0  0  0  0  0  0  0  0
    4.0859   -1.9235    0.0000 C   0  0  0  0  0  0  0  0  0  0  0  0
    4.8742   -1.6803    0.0000 C   0  0  0  0  0  0  0  0  0  0  0  0
    5.0578   -0.8760    0.0000 C   0  0  0  0  0  0  0  0  0  0  0  0
    4.4530   -0.3148    0.0000 C   0  0  0  0  0  0  0  0  0  0  0  0
    2.7378   -1.7203    0.0000 N   0  0  0  0  0  0  0  0  0  0  0  0
    2.7378   -2.5453    0.0000 C   0  0  0  0  0  0  0  0  0  0  0  0
    2.0233   -2.9578    0.0000 C   0  0  0  0  0  0  0  0  0  0  0  0
    2.0233   -3.7828    0.0000 C   0  0  0  0  0  0  0  0  0  0  0  0
    1.3089   -4.1953    0.0000 N   0  0  0  0  0  0  0  0  0  0  0  0
    1.3089   -5.0203    0.0000 C   0  0  0  0  0  0  0  0  0  0  0  0
    0.5944   -5.4328    0.0000 C   0  0  0  0  0  0  0  0  0  0  0  0
   -0.1201   -5.0203    0.0000 C   0  0  0  0  0  0  0  0  0  0  0  0
   -0.1201   -4.1953    0.0000 C   0  0  0  0  0  0  0  0  0  0  0  0
    0.5944   -3.7828    0.0000 C   0  0  0  0  0  0  0  0  0  0  0  0
   -0.2063   -5.8408    0.0000 N   0  0  0  0  0  0  0  0  0  0  0  0
    0.3457   -6.4538    0.0000 C   0  0  0  0  0  0  0  0  0  0  0  0
    0.0908   -7.2385    0.0000 C   0  0  0  0  0  0  0  0  0  0  0  0
   -0.7162   -7.4100    0.0000 C   0  0  0  0  0  0  0  0  0  0  0  0
   -1.2682   -6.7969    0.0000 C   0  0  0  0  0  0  0  0  0  0  0  0
   -1.0133   -6.0123    0.0000 C   0  0  0  0  0  0  0  0  0  0  0  0
   -1.4258   -5.2978    0.0000 N   0  0  0  0  0  0  0  0  0  0  0  0
   -0.8738   -4.6847    0.0000 C   0  0  0  0  0  0  0  0  0  0  0  0
   -1.0453   -3.8777    0.0000 O   0  0  0  0  0  0  0  0  0  0  0  0
    1.9945   -1.3623    0.0000 C   0  0  0  0  0  0  0  0  0  0  0  0
    1.3897   -1.9235    0.0000 C   0  0  0  0  0  0  0  0  0  0  0  0
  1  2  1  0  0  0  0
  2  3  4  0  0  0  0
  3  4  4  0  0  0  0
  4  5  4  0  0  0  0
  5  6  1  0  0  0  0
  6  7  1  0  0  0  0
  7  8  1  0  0  0  0
  8  9  4  0  0  0  0
  9 10  4  0  0  0  0
 10 11  4  0  0  0  0
 11 12  4  0  0  0  0
 12 13  4  0  0  0  0
  8 13  4  0  0  0  0
  9 14  1  0  0  0  0
 14 15  1  0  0  0  0
 15 16  1  0  0  0  0
 16 17  1  0  0  0  0
 17 18  1  0  0  0  0
 18 19  1  0  0  0  0
 19 20  1  0  0  0  0
 20 21  1  0  0  0  0
 21 22  1  0  0  0  0
 22 23  1  0  0  0  0
 18 23  1  0  0  0  0
 21 24  1  0  0  0  0
 24 25  1  0  0  0  0
 25 26  1  0  0  0  0
 26 27  1  0  0  0  0
 27 28  1  0  0  0  0
 28 29  1  0  0  0  0
 24 29  1  0  0  0  0
 29 30  1  0  0  0  0
 30 31  1  0  0  0  0
 21 31  1  0  0  0  0
 31 32  2  0  0  0  0
 14 33  1  0  0  0  0
  5 33  4  0  0  0  0
 33 34  4  0  0  0  0
  2 34  4  0  0  0  0
M  END
>  <ID>
1847

>  <PREFERRED_NAME>
mosapramine

>  <CAS_RN>
89419-40-9

>  <SYNONYMS>
mosapramine
Y-516
mosapramine HCl
mosapramine hydrochloride
cremin
clospipramine

>  <URL>
http://drugcentral.org/drugcard/1847/view

$$$$
