moxifloxacin
  -INDIGO-06102311022D

 29 33  0  0  1  0  0  0  0  0999 V2000
    0.7272   -4.6057    0.0000 C   0  0  0  0  0  0  0  0  0  0  0  0
   -0.0978   -4.6057    0.0000 O   0  0  0  0  0  0  0  0  0  0  0  0
   -0.5103   -3.8913    0.0000 C   0  0  0  0  0  0  0  0  0  0  0  0
   -1.3353   -3.8913    0.0000 C   0  0  0  0  0  0  0  0  0  0  0  0
   -1.7478   -4.6057    0.0000 N   0  0  0  0  0  0  0  0  0  0  0  0
   -2.5728   -4.6057    0.0000 C   0  0  0  0  0  0  0  0  0  0  0  0
   -2.9853   -3.8913    0.0000 C   0  0  0  0  0  0  0  0  0  0  0  0
   -3.8103   -3.8913    0.0000 C   0  0  0  0  0  0  0  0  0  0  0  0
   -4.2228   -3.1768    0.0000 O   0  0  0  0  0  0  0  0  0  0  0  0
   -4.2228   -4.6057    0.0000 O   0  0  0  0  0  0  0  0  0  0  0  0
   -2.5728   -3.1768    0.0000 C   0  0  0  0  0  0  0  0  0  0  0  0
   -2.9853   -2.4623    0.0000 O   0  0  0  0  0  0  0  0  0  0  0  0
   -1.7478   -3.1768    0.0000 C   0  0  0  0  0  0  0  0  0  0  0  0
   -1.3353   -2.4623    0.0000 C   0  0  0  0  0  0  0  0  0  0  0  0
   -0.5103   -2.4623    0.0000 C   0  0  0  0  0  0  0  0  0  0  0  0
   -0.0978   -1.7478    0.0000 F   0  0  0  0  0  0  0  0  0  0  0  0
   -0.0978   -3.1768    0.0000 C   0  0  0  0  0  0  0  0  0  0  0  0
    0.7272   -3.1768    0.0000 N   0  0  0  0  0  0  0  0  0  0  0  0
    1.2121   -2.5093    0.0000 C   0  0  0  0  0  0  0  0  0  0  0  0
    1.9967   -2.7643    0.0000 C   0  0  2  0  0  0  0  0  0  0  0  0
    2.7112   -2.3518    0.0000 C   0  0  0  0  0  0  0  0  0  0  0  0
    3.4256   -2.7643    0.0000 C   0  0  0  0  0  0  0  0  0  0  0  0
    3.4256   -3.5893    0.0000 C   0  0  0  0  0  0  0  0  0  0  0  0
    2.7112   -4.0018    0.0000 N   0  0  0  0  0  0  0  0  0  0  0  0
    1.9967   -3.5893    0.0000 C   0  0  2  0  0  0  0  0  0  0  0  0
    1.2121   -3.8442    0.0000 C   0  0  0  0  0  0  0  0  0  0  0  0
   -1.3353   -5.3202    0.0000 C   0  0  0  0  0  0  0  0  0  0  0  0
   -0.6209   -5.7327    0.0000 C   0  0  0  0  0  0  0  0  0  0  0  0
   -1.3353   -6.1452    0.0000 C   0  0  0  0  0  0  0  0  0  0  0  0
  1  2  1  0  0  0  0
  2  3  1  0  0  0  0
  3  4  4  0  0  0  0
  4  5  1  0  0  0  0
  5  6  1  0  0  0  0
  6  7  2  0  0  0  0
  7  8  1  0  0  0  0
  8  9  1  0  0  0  0
  8 10  2  0  0  0  0
  7 11  1  0  0  0  0
 11 12  2  0  0  0  0
 11 13  1  0  0  0  0
  4 13  4  0  0  0  0
 13 14  4  0  0  0  0
 14 15  4  0  0  0  0
 15 16  1  0  0  0  0
 15 17  4  0  0  0  0
  3 17  4  0  0  0  0
 17 18  1  0  0  0  0
 18 19  1  0  0  0  0
 20 19  1  6  0  0  0
 20 21  1  0  0  0  0
 21 22  1  0  0  0  0
 22 23  1  0  0  0  0
 23 24  1  0  0  0  0
 24 25  1  0  0  0  0
 20 25  1  0  0  0  0
 25 26  1  6  0  0  0
 18 26  1  0  0  0  0
  5 27  1  0  0  0  0
 27 28  1  0  0  0  0
 28 29  1  0  0  0  0
 27 29  1  0  0  0  0
M  END
>  <ID>
1854

>  <PREFERRED_NAME>
moxifloxacin

>  <CAS_RN>
151096-09-2

>  <SYNONYMS>
moxifloxacin
avelox
moxifloxacin hydrochloride
avolex
moxeza
moxifloxacine
moxifloxacin HCl

>  <URL>
http://drugcentral.org/drugcard/1854/view

$$$$
