nabilone
  -INDIGO-06102311022D

 27 29  0  0  0  0  0  0  0  0999 V2000
   -4.6480   -4.2059    0.0000 C   0  0  0  0  0  0  0  0  0  0  0  0
   -4.2355   -3.4914    0.0000 C   0  0  0  0  0  0  0  0  0  0  0  0
   -3.4105   -3.4914    0.0000 C   0  0  0  0  0  0  0  0  0  0  0  0
   -2.9980   -2.7770    0.0000 C   0  0  0  0  0  0  0  0  0  0  0  0
   -2.1730   -2.7770    0.0000 C   0  0  0  0  0  0  0  0  0  0  0  0
   -1.7605   -2.0625    0.0000 C   0  0  0  0  0  0  0  0  0  0  0  0
   -0.9355   -2.0625    0.0000 C   0  0  0  0  0  0  0  0  0  0  0  0
   -0.9355   -2.8875    0.0000 C   0  0  0  0  0  0  0  0  0  0  0  0
   -0.9355   -1.2375    0.0000 C   0  0  0  0  0  0  0  0  0  0  0  0
   -0.1105   -2.0625    0.0000 C   0  0  0  0  0  0  0  0  0  0  0  0
    0.3020   -1.3480    0.0000 C   0  0  0  0  0  0  0  0  0  0  0  0
    1.1270   -1.3480    0.0000 C   0  0  0  0  0  0  0  0  0  0  0  0
    1.5395   -0.6336    0.0000 O   0  0  0  0  0  0  0  0  0  0  0  0
    1.5395   -2.0625    0.0000 C   0  0  0  0  0  0  0  0  0  0  0  0
    2.3645   -2.0625    0.0000 C   0  0  0  0  0  0  0  0  0  0  0  0
    2.7770   -1.3480    0.0000 C   0  0  0  0  0  0  0  0  0  0  0  0
    3.6020   -1.3480    0.0000 C   0  0  0  0  0  0  0  0  0  0  0  0
    4.0145   -0.6336    0.0000 O   0  0  0  0  0  0  0  0  0  0  0  0
    4.0145   -2.0625    0.0000 C   0  0  0  0  0  0  0  0  0  0  0  0
    3.6020   -2.7770    0.0000 C   0  0  0  0  0  0  0  0  0  0  0  0
    2.7770   -2.7770    0.0000 C   0  0  0  0  0  0  0  0  0  0  0  0
    2.3645   -3.4914    0.0000 C   0  0  0  0  0  0  0  0  0  0  0  0
    3.1397   -3.7736    0.0000 C   0  0  0  0  0  0  0  0  0  0  0  0
    2.2212   -4.3039    0.0000 C   0  0  0  0  0  0  0  0  0  0  0  0
    1.5395   -3.4914    0.0000 O   0  0  0  0  0  0  0  0  0  0  0  0
    1.1270   -2.7770    0.0000 C   0  0  0  0  0  0  0  0  0  0  0  0
    0.3020   -2.7770    0.0000 C   0  0  0  0  0  0  0  0  0  0  0  0
  1  2  1  0  0  0  0
  2  3  1  0  0  0  0
  3  4  1  0  0  0  0
  4  5  1  0  0  0  0
  5  6  1  0  0  0  0
  6  7  1  0  0  0  0
  7  8  1  0  0  0  0
  7  9  1  0  0  0  0
  7 10  1  0  0  0  0
 10 11  4  0  0  0  0
 11 12  4  0  0  0  0
 12 13  1  0  0  0  0
 12 14  4  0  0  0  0
 14 15  1  0  0  0  0
 15 16  1  0  0  0  0
 16 17  1  0  0  0  0
 17 18  2  0  0  0  0
 17 19  1  0  0  0  0
 19 20  1  0  0  0  0
 20 21  1  0  0  0  0
 15 21  1  0  0  0  0
 21 22  1  0  0  0  0
 22 23  1  0  0  0  0
 22 24  1  0  0  0  0
 22 25  1  0  0  0  0
 25 26  1  0  0  0  0
 14 26  4  0  0  0  0
 26 27  4  0  0  0  0
 10 27  4  0  0  0  0
M  END
>  <ID>
1862

>  <PREFERRED_NAME>
nabilone

>  <CAS_RN>
51022-71-0

>  <SYNONYMS>
nabilone
cesamet
LY 109514
LY-109514

>  <URL>
http://drugcentral.org/drugcard/1862/view

$$$$
