nafarelin
  -INDIGO-06102311022D

 96103  0  0  1  0  0  0  0  0999 V2000
   19.9105   -6.8225    0.0000 C   0  0  0  0  0  0  0  0  0  0  0  0
   19.1179   -6.5936    0.0000 C   0  0  0  0  0  0  0  0  0  0  0  0
   18.9197   -5.7928    0.0000 C   0  0  0  0  0  0  0  0  0  0  0  0
   18.5234   -7.1657    0.0000 C   0  0  0  0  0  0  0  0  0  0  0  0
   17.7308   -6.9369    0.0000 C   0  0  2  0  0  0  0  0  0  0  0  0
   17.1363   -7.5089    0.0000 N   0  0  0  0  0  0  0  0  0  0  0  0
   17.3345   -8.3098    0.0000 C   0  0  0  0  0  0  0  0  0  0  0  0
   18.1271   -8.5386    0.0000 O   0  0  0  0  0  0  0  0  0  0  0  0
   16.7400   -8.8818    0.0000 C   0  0  1  0  0  0  0  0  0  0  0  0
   16.9381   -9.6826    0.0000 C   0  0  0  0  0  0  0  0  0  0  0  0
   16.3437  -10.2547    0.0000 C   0  0  0  0  0  0  0  0  0  0  0  0
   15.5510  -10.0259    0.0000 C   0  0  0  0  0  0  0  0  0  0  0  0
   14.9566  -10.5979    0.0000 C   0  0  0  0  0  0  0  0  0  0  0  0
   15.1547  -11.3987    0.0000 C   0  0  0  0  0  0  0  0  0  0  0  0
   14.5602  -11.9708    0.0000 C   0  0  0  0  0  0  0  0  0  0  0  0
   13.7676  -11.7420    0.0000 C   0  0  0  0  0  0  0  0  0  0  0  0
   13.5694  -10.9411    0.0000 C   0  0  0  0  0  0  0  0  0  0  0  0
   14.1639  -10.3691    0.0000 C   0  0  0  0  0  0  0  0  0  0  0  0
   15.9474  -11.6276    0.0000 C   0  0  0  0  0  0  0  0  0  0  0  0
   16.5418  -11.0555    0.0000 C   0  0  0  0  0  0  0  0  0  0  0  0
   15.9474   -8.6530    0.0000 N   0  0  0  0  0  0  0  0  0  0  0  0
   15.7492   -7.8521    0.0000 C   0  0  0  0  0  0  0  0  0  0  0  0
   16.3437   -7.2801    0.0000 O   0  0  0  0  0  0  0  0  0  0  0  0
   14.9566   -7.6233    0.0000 C   0  0  2  0  0  0  0  0  0  0  0  0
   14.5679   -8.3511    0.0000 C   0  0  0  0  0  0  0  0  0  0  0  0
   13.7434   -8.3784    0.0000 C   0  0  0  0  0  0  0  0  0  0  0  0
   13.3548   -9.1061    0.0000 C   0  0  0  0  0  0  0  0  0  0  0  0
   12.5302   -9.1334    0.0000 C   0  0  0  0  0  0  0  0  0  0  0  0
   12.0943   -8.4330    0.0000 C   0  0  0  0  0  0  0  0  0  0  0  0
   11.2698   -8.4603    0.0000 O   0  0  0  0  0  0  0  0  0  0  0  0
   12.4829   -7.7053    0.0000 C   0  0  0  0  0  0  0  0  0  0  0  0
   13.3075   -7.6780    0.0000 C   0  0  0  0  0  0  0  0  0  0  0  0
   14.7584   -6.8225    0.0000 N   0  0  0  0  0  0  0  0  0  0  0  0
   13.9658   -6.5936    0.0000 C   0  0  0  0  0  0  0  0  0  0  0  0
   13.1486   -6.7070    0.0000 O   0  0  0  0  0  0  0  0  0  0  0  0
   13.7676   -5.7928    0.0000 C   0  0  2  0  0  0  0  0  0  0  0  0
   14.3621   -5.2208    0.0000 C   0  0  0  0  0  0  0  0  0  0  0  0
   15.1547   -5.4496    0.0000 O   0  0  0  0  0  0  0  0  0  0  0  0
   12.9750   -5.5640    0.0000 N   0  0  0  0  0  0  0  0  0  0  0  0
   12.7768   -4.7631    0.0000 C   0  0  0  0  0  0  0  0  0  0  0  0
   13.3713   -4.1911    0.0000 O   0  0  0  0  0  0  0  0  0  0  0  0
   11.9842   -4.5343    0.0000 C   0  0  2  0  0  0  0  0  0  0  0  0
   11.3897   -5.1064    0.0000 C   0  0  0  0  0  0  0  0  0  0  0  0
   11.5879   -5.9072    0.0000 C   0  0  0  0  0  0  0  0  0  0  0  0
   12.3522   -6.2176    0.0000 C   0  0  0  0  0  0  0  0  0  0  0  0
   12.2932   -7.0405    0.0000 N   0  0  0  0  0  0  0  0  0  0  0  0
   11.4924   -7.2387    0.0000 C   0  0  0  0  0  0  0  0  0  0  0  0
   11.0564   -6.5382    0.0000 C   0  0  0  0  0  0  0  0  0  0  0  0
   10.2319   -6.5656    0.0000 C   0  0  0  0  0  0  0  0  0  0  0  0
    9.8433   -7.2933    0.0000 C   0  0  0  0  0  0  0  0  0  0  0  0
   10.2792   -7.9937    0.0000 C   0  0  0  0  0  0  0  0  0  0  0  0
   11.1038   -7.9664    0.0000 C   0  0  0  0  0  0  0  0  0  0  0  0
   11.7860   -3.7335    0.0000 N   0  0  0  0  0  0  0  0  0  0  0  0
   10.9934   -3.5047    0.0000 C   0  0  0  0  0  0  0  0  0  0  0  0
   10.3989   -4.0767    0.0000 O   0  0  0  0  0  0  0  0  0  0  0  0
   10.7952   -2.7038    0.0000 C   0  0  2  0  0  0  0  0  0  0  0  0
   11.3897   -2.1318    0.0000 C   0  0  0  0  0  0  0  0  0  0  0  0
   12.1823   -2.3606    0.0000 C   0  0  0  0  0  0  0  0  0  0  0  0
   12.4631   -3.1363    0.0000 C   0  0  0  0  0  0  0  0  0  0  0  0
   13.2877   -3.1090    0.0000 N   0  0  0  0  0  0  0  0  0  0  0  0
   13.5165   -2.3164    0.0000 C   0  0  0  0  0  0  0  0  0  0  0  0
   12.8334   -1.8538    0.0000 N   0  0  0  0  0  0  0  0  0  0  0  0
   10.0026   -2.4750    0.0000 N   0  0  0  0  0  0  0  0  0  0  0  0
    9.8044   -1.6742    0.0000 C   0  0  0  0  0  0  0  0  0  0  0  0
   10.3989   -1.1021    0.0000 O   0  0  0  0  0  0  0  0  0  0  0  0
    9.0118   -1.4453    0.0000 C   0  0  2  0  0  0  0  0  0  0  0  0
    8.7310   -0.6696    0.0000 C   0  0  0  0  0  0  0  0  0  0  0  0
    7.9065   -0.6969    0.0000 C   0  0  0  0  0  0  0  0  0  0  0  0
    7.6777   -1.4895    0.0000 C   0  0  0  0  0  0  0  0  0  0  0  0
    6.9019   -1.7703    0.0000 O   0  0  0  0  0  0  0  0  0  0  0  0
    8.3608   -1.9521    0.0000 N   0  0  0  0  0  0  0  0  0  0  0  0
   17.5326   -6.1360    0.0000 C   0  0  0  0  0  0  0  0  0  0  0  0
   16.7400   -5.9072    0.0000 O   0  0  0  0  0  0  0  0  0  0  0  0
   18.1271   -5.5640    0.0000 N   0  0  0  0  0  0  0  0  0  0  0  0
   17.9289   -4.7631    0.0000 C   0  0  1  0  0  0  0  0  0  0  0  0
   17.1363   -4.5343    0.0000 C   0  0  0  0  0  0  0  0  0  0  0  0
   16.9381   -3.7335    0.0000 C   0  0  0  0  0  0  0  0  0  0  0  0
   16.1455   -3.5047    0.0000 C   0  0  0  0  0  0  0  0  0  0  0  0
   15.9474   -2.7038    0.0000 N   0  0  0  0  0  0  0  0  0  0  0  0
   15.1547   -2.4750    0.0000 C   0  0  0  0  0  0  0  0  0  0  0  0
   14.5602   -3.0470    0.0000 N   0  0  0  0  0  0  0  0  0  0  0  0
   14.9566   -1.6742    0.0000 N   0  0  0  0  0  0  0  0  0  0  0  0
   18.5234   -4.1911    0.0000 C   0  0  0  0  0  0  0  0  0  0  0  0
   18.3253   -3.3903    0.0000 O   0  0  0  0  0  0  0  0  0  0  0  0
   19.3160   -4.4199    0.0000 N   0  0  0  0  0  0  0  0  0  0  0  0
   19.5968   -5.1957    0.0000 C   0  0  0  0  0  0  0  0  0  0  0  0
   20.4214   -5.1683    0.0000 C   0  0  0  0  0  0  0  0  0  0  0  0
   20.6502   -4.3757    0.0000 C   0  0  0  0  0  0  0  0  0  0  0  0
   19.9671   -3.9132    0.0000 C   0  0  1  0  0  0  0  0  0  0  0  0
   19.9397   -3.0886    0.0000 C   0  0  0  0  0  0  0  0  0  0  0  0
   20.6402   -2.6527    0.0000 O   0  0  0  0  0  0  0  0  0  0  0  0
   19.2120   -2.7000    0.0000 N   0  0  0  0  0  0  0  0  0  0  0  0
   19.1847   -1.8754    0.0000 C   0  0  0  0  0  0  0  0  0  0  0  0
   18.4569   -1.4868    0.0000 C   0  0  0  0  0  0  0  0  0  0  0  0
   18.4296   -0.6623    0.0000 N   0  0  0  0  0  0  0  0  0  0  0  0
   17.7565   -1.9228    0.0000 O   0  0  0  0  0  0  0  0  0  0  0  0
  1  2  1  0  0  0  0
  2  3  1  0  0  0  0
  2  4  1  0  0  0  0
  4  5  1  0  0  0  0
  5  6  1  6  0  0  0
  6  7  1  0  0  0  0
  7  8  2  0  0  0  0
  7  9  1  0  0  0  0
  9 10  1  0  0  0  0
 10 11  1  0  0  0  0
 11 12  4  0  0  0  0
 12 13  4  0  0  0  0
 13 14  4  0  0  0  0
 14 15  4  0  0  0  0
 15 16  4  0  0  0  0
 16 17  4  0  0  0  0
 17 18  4  0  0  0  0
 13 18  4  0  0  0  0
 14 19  4  0  0  0  0
 19 20  4  0  0  0  0
 11 20  4  0  0  0  0
  9 21  1  1  0  0  0
 21 22  1  0  0  0  0
 22 23  2  0  0  0  0
 22 24  1  0  0  0  0
 24 25  1  0  0  0  0
 25 26  1  0  0  0  0
 26 27  4  0  0  0  0
 27 28  4  0  0  0  0
 28 29  4  0  0  0  0
 29 30  1  0  0  0  0
 29 31  4  0  0  0  0
 31 32  4  0  0  0  0
 26 32  4  0  0  0  0
 24 33  1  6  0  0  0
 33 34  1  0  0  0  0
 34 35  2  0  0  0  0
 34 36  1  0  0  0  0
 36 37  1  0  0  0  0
 37 38  1  0  0  0  0
 36 39  1  1  0  0  0
 39 40  1  0  0  0  0
 40 41  2  0  0  0  0
 40 42  1  0  0  0  0
 42 43  1  0  0  0  0
 43 44  1  0  0  0  0
 44 45  4  0  0  0  0
 45 46  4  0  0  0  0
 46 47  4  0  0  0  0
 47 48  4  0  0  0  0
 44 48  4  0  0  0  0
 48 49  4  0  0  0  0
 49 50  4  0  0  0  0
 50 51  4  0  0  0  0
 51 52  4  0  0  0  0
 47 52  4  0  0  0  0
 42 53  1  6  0  0  0
 53 54  1  0  0  0  0
 54 55  2  0  0  0  0
 54 56  1  0  0  0  0
 56 57  1  0  0  0  0
 57 58  1  0  0  0  0
 58 59  4  0  0  0  0
 59 60  4  0  0  0  0
 60 61  4  0  0  0  0
 61 62  4  0  0  0  0
 58 62  4  0  0  0  0
 56 63  1  1  0  0  0
 63 64  1  0  0  0  0
 64 65  2  0  0  0  0
 66 64  1  1  0  0  0
 66 67  1  0  0  0  0
 67 68  1  0  0  0  0
 68 69  1  0  0  0  0
 69 70  2  0  0  0  0
 69 71  1  0  0  0  0
 66 71  1  0  0  0  0
  5 72  1  0  0  0  0
 72 73  2  0  0  0  0
 72 74  1  0  0  0  0
 75 74  1  1  0  0  0
 75 76  1  0  0  0  0
 76 77  1  0  0  0  0
 77 78  1  0  0  0  0
 78 79  1  0  0  0  0
 79 80  1  0  0  0  0
 80 81  1  0  0  0  0
 80 82  2  0  0  0  0
 75 83  1  0  0  0  0
 83 84  2  0  0  0  0
 83 85  1  0  0  0  0
 85 86  1  0  0  0  0
 86 87  1  0  0  0  0
 87 88  1  0  0  0  0
 88 89  1  0  0  0  0
 85 89  1  0  0  0  0
 89 90  1  6  0  0  0
 90 91  2  0  0  0  0
 90 92  1  0  0  0  0
 92 93  1  0  0  0  0
 93 94  1  0  0  0  0
 94 95  1  0  0  0  0
 94 96  2  0  0  0  0
M  STY  2   1 DAT   2 DAT
M  SLB  2   1   1   2   2
M  SAL   1  1  60
M  SDT   1 MRV_IMPLICIT_H
M  SDD   1     0.0000    0.0000    DA    ALL  1       1
M  SED   1 IMPL_H1
M  SAL   2  1  46
M  SDT   2 MRV_IMPLICIT_H
M  SDD   2     0.0000    0.0000    DA    ALL  1       1
M  SED   2 IMPL_H1
M  END
>  <ID>
1868

>  <PREFERRED_NAME>
nafarelin

>  <CAS_RN>
76932-56-4

>  <SYNONYMS>
nafarelin
nafareline
nafarelin acetate
nafarelin acetate hydrate
nasanyl

>  <URL>
http://drugcentral.org/drugcard/1868/view

$$$$
