nafcillin
  -INDIGO-06102311022D

 29 32  0  0  1  0  0  0  0  0999 V2000
   -0.3194    0.8741    0.0000 C   0  0  0  0  0  0  0  0  0  0  0  0
   -0.1059    1.6709    0.0000 C   0  0  0  0  0  0  0  0  0  0  0  0
    0.6910    1.8845    0.0000 O   0  0  0  0  0  0  0  0  0  0  0  0
    0.9046    2.6814    0.0000 C   0  0  0  0  0  0  0  0  0  0  0  0
    0.3212    3.2647    0.0000 C   0  0  0  0  0  0  0  0  0  0  0  0
    0.5347    4.0616    0.0000 C   0  0  0  0  0  0  0  0  0  0  0  0
    1.3316    4.2751    0.0000 C   0  0  0  0  0  0  0  0  0  0  0  0
    1.5451    5.0720    0.0000 C   0  0  0  0  0  0  0  0  0  0  0  0
    2.3420    5.2855    0.0000 C   0  0  0  0  0  0  0  0  0  0  0  0
    2.9254    4.7022    0.0000 C   0  0  0  0  0  0  0  0  0  0  0  0
    2.7119    3.9053    0.0000 C   0  0  0  0  0  0  0  0  0  0  0  0
    1.9150    3.6918    0.0000 C   0  0  0  0  0  0  0  0  0  0  0  0
    1.7014    2.8949    0.0000 C   0  0  0  0  0  0  0  0  0  0  0  0
    2.2848    2.3115    0.0000 C   0  0  0  0  0  0  0  0  0  0  0  0
    2.0713    1.5146    0.0000 O   0  0  0  0  0  0  0  0  0  0  0  0
    3.0817    2.5250    0.0000 N   0  0  0  0  0  0  0  0  0  0  0  0
    3.6651    1.9417    0.0000 C   0  0  1  0  0  0  0  0  0  0  0  0
    4.4901    1.9417    0.0000 C   0  0  1  0  0  0  0  0  0  0  0  0
    5.2747    2.1966    0.0000 S   0  0  0  0  0  0  0  0  0  0  0  0
    5.7596    1.5292    0.0000 C   0  0  0  0  0  0  0  0  0  0  0  0
    6.3727    2.0812    0.0000 C   0  0  0  0  0  0  0  0  0  0  0  0
    6.3727    0.9771    0.0000 C   0  0  0  0  0  0  0  0  0  0  0  0
    5.2747    0.8617    0.0000 C   0  0  1  0  0  0  0  0  0  0  0  0
    4.4901    1.1167    0.0000 N   0  0  0  0  0  0  0  0  0  0  0  0
    3.6651    1.1167    0.0000 C   0  0  0  0  0  0  0  0  0  0  0  0
    3.0817    0.5333    0.0000 O   0  0  0  0  0  0  0  0  0  0  0  0
    5.5296    0.0771    0.0000 C   0  0  0  0  0  0  0  0  0  0  0  0
    6.3366   -0.0944    0.0000 O   0  0  0  0  0  0  0  0  0  0  0  0
    4.9776   -0.5360    0.0000 O   0  0  0  0  0  0  0  0  0  0  0  0
  1  2  1  0  0  0  0
  2  3  1  0  0  0  0
  3  4  1  0  0  0  0
  4  5  4  0  0  0  0
  5  6  4  0  0  0  0
  6  7  4  0  0  0  0
  7  8  4  0  0  0  0
  8  9  4  0  0  0  0
  9 10  4  0  0  0  0
 10 11  4  0  0  0  0
 11 12  4  0  0  0  0
  7 12  4  0  0  0  0
 12 13  4  0  0  0  0
  4 13  4  0  0  0  0
 13 14  1  0  0  0  0
 14 15  2  0  0  0  0
 14 16  1  0  0  0  0
 17 16  1  1  0  0  0
 17 18  1  0  0  0  0
 18 19  1  0  0  0  0
 19 20  1  0  0  0  0
 20 21  1  0  0  0  0
 20 22  1  0  0  0  0
 20 23  1  0  0  0  0
 23 24  1  0  0  0  0
 18 24  1  1  0  0  0
 24 25  1  0  0  0  0
 17 25  1  0  0  0  0
 25 26  2  0  0  0  0
 23 27  1  6  0  0  0
 27 28  1  0  0  0  0
 27 29  2  0  0  0  0
M  END
>  <ID>
1869

>  <PREFERRED_NAME>
nafcillin

>  <CAS_RN>
147-52-4

>  <SYNONYMS>
nafcillin
naphthamidopenicillin
nafcilin
nallpen
naphcillin
nafcillin sodium
nafcillin sodium salt monohydrate
nafcillin sodium salt

>  <URL>
http://drugcentral.org/drugcard/1869/view

$$$$
