naldemedine
  -INDIGO-06102311192D

 42 49  0  0  1  0  0  0  0  0999 V2000
   -1.8373   -0.0486    0.0000 C   0  0  0  0  0  0  0  0  0  0  0  0
   -1.6540   -0.8530    0.0000 C   0  0  0  0  0  0  0  0  0  0  0  0
   -1.4708   -1.6574    0.0000 C   0  0  0  0  0  0  0  0  0  0  0  0
   -0.8497   -0.6697    0.0000 N   0  0  0  0  0  0  0  0  0  0  0  0
   -0.6062    0.1185    0.0000 C   0  0  0  0  0  0  0  0  0  0  0  0
   -1.1671    0.7235    0.0000 O   0  0  0  0  0  0  0  0  0  0  0  0
    0.1982    0.3018    0.0000 C   0  0  0  0  0  0  0  0  0  0  0  0
    0.8179   -0.2792    0.0000 C   0  0  0  0  0  0  0  0  0  0  0  0
    0.6329   -1.0832    0.0000 O   0  0  0  0  0  0  0  0  0  0  0  0
    1.6347   -0.0257    0.0000 C   0  0  2  0  0  0  0  0  0  0  0  0
    2.4520   -0.2215    0.0000 O   0  0  0  0  0  0  0  0  0  0  0  0
    2.9260    0.4879    0.0000 C   0  0  0  0  0  0  0  0  0  0  0  0
    3.7273    0.7212    0.0000 C   0  0  0  0  0  0  0  0  0  0  0  0
    4.3099    0.1371    0.0000 O   0  0  0  0  0  0  0  0  0  0  0  0
    3.9632    1.5235    0.0000 C   0  0  0  0  0  0  0  0  0  0  0  0
    3.3890    2.1294    0.0000 C   0  0  0  0  0  0  0  0  0  0  0  0
    2.5691    1.9671    0.0000 C   0  0  0  0  0  0  0  0  0  0  0  0
    2.4049    1.1281    0.0000 C   0  0  0  0  0  0  0  0  0  0  0  0
    1.6552    0.8143    0.0000 C   0  0  1  0  0  0  0  0  0  0  0  0
    0.8008    0.5687    0.0000 C   0  0  0  0  0  0  0  0  0  0  0  0
   -0.0082    1.0730    0.0000 C   0  0  0  0  0  0  0  0  0  0  0  0
    0.2231    1.9145    0.0000 N   0  0  0  0  0  0  0  0  0  0  0  0
   -0.3671    2.4909    0.0000 C   0  0  0  0  0  0  0  0  0  0  0  0
   -1.1614    2.2680    0.0000 C   0  0  0  0  0  0  0  0  0  0  0  0
   -1.7378    1.6778    0.0000 C   0  0  0  0  0  0  0  0  0  0  0  0
   -1.9608    2.4721    0.0000 C   0  0  0  0  0  0  0  0  0  0  0  0
    1.0610    2.1663    0.0000 C   0  0  2  0  0  0  0  0  0  0  0  0
    1.8608    2.4763    0.0000 C   0  0  0  0  0  0  0  0  0  0  0  0
    1.3096    1.4203    0.0000 C   0  0  1  0  0  0  0  0  0  0  0  0
    2.0629    1.7567    0.0000 O   0  0  0  0  0  0  0  0  0  0  0  0
    0.5299    1.1580    0.0000 C   0  0  0  0  0  0  0  0  0  0  0  0
   -2.4584   -1.0362    0.0000 C   0  0  0  0  0  0  0  0  0  0  0  0
   -2.7830   -1.7947    0.0000 N   0  0  0  0  0  0  0  0  0  0  0  0
   -3.6046   -1.7204    0.0000 C   0  0  0  0  0  0  0  0  0  0  0  0
   -3.7879   -0.9161    0.0000 N   0  0  0  0  0  0  0  0  0  0  0  0
   -3.0795   -0.4932    0.0000 O   0  0  0  0  0  0  0  0  0  0  0  0
   -4.1477   -2.3415    0.0000 C   0  0  0  0  0  0  0  0  0  0  0  0
   -3.8813   -3.1223    0.0000 C   0  0  0  0  0  0  0  0  0  0  0  0
   -4.4244   -3.7434    0.0000 C   0  0  0  0  0  0  0  0  0  0  0  0
   -5.2338   -3.5836    0.0000 C   0  0  0  0  0  0  0  0  0  0  0  0
   -5.5001   -2.8028    0.0000 C   0  0  0  0  0  0  0  0  0  0  0  0
   -4.9571   -2.1818    0.0000 C   0  0  0  0  0  0  0  0  0  0  0  0
  1  2  1  0  0  0  0
  2  3  1  0  0  0  0
  2  4  1  0  0  0  0
  4  5  1  0  0  0  0
  5  6  2  0  0  0  0
  5  7  1  0  0  0  0
  7  8  2  0  0  0  0
  8  9  1  0  0  0  0
  8 10  1  0  0  0  0
 10 11  1  1  0  0  0
 11 12  1  0  0  0  0
 12 13  4  0  0  0  0
 13 14  1  0  0  0  0
 13 15  4  0  0  0  0
 15 16  4  0  0  0  0
 16 17  4  0  0  0  0
 17 18  4  0  0  0  0
 12 18  4  0  0  0  0
 19 18  1  6  0  0  0
 10 19  1  0  0  0  0
 19 20  1  0  0  0  0
 20 21  1  0  0  0  0
 21 22  1  0  0  0  0
 22 23  1  0  0  0  0
 23 24  1  0  0  0  0
 24 25  1  0  0  0  0
 25 26  1  0  0  0  0
 24 26  1  0  0  0  0
 27 22  1  6  0  0  0
 27 28  1  0  0  0  0
 17 28  1  0  0  0  0
 27 29  1  0  0  0  0
 19 29  1  0  0  0  0
 29 30  1  6  0  0  0
 29 31  1  0  0  0  0
  7 31  1  0  0  0  0
  2 32  1  0  0  0  0
 32 33  4  0  0  0  0
 33 34  4  0  0  0  0
 34 35  4  0  0  0  0
 35 36  4  0  0  0  0
 32 36  4  0  0  0  0
 34 37  1  0  0  0  0
 37 38  4  0  0  0  0
 38 39  4  0  0  0  0
 39 40  4  0  0  0  0
 40 41  4  0  0  0  0
 41 42  4  0  0  0  0
 37 42  4  0  0  0  0
M  END
>  <ID>
5220

>  <PREFERRED_NAME>
naldemedine

>  <CAS_RN>
916072-89-4

>  <SYNONYMS>
naldemedine
symproic
nalmedine
naldemedine tosylate
S-297995
naldemedine tosilate

>  <URL>
http://drugcentral.org/drugcard/5220/view

$$$$
