nandrolone cyclotate
  -INDIGO-06102311022D

 31 36  0  0  1  0  0  0  0  0999 V2000
    5.7573   -4.2654    0.0000 C   0  0  0  0  0  0  0  0  0  0  0  0
    5.9288   -5.0723    0.0000 C   0  0  2  0  0  0  0  0  0  0  0  0
    5.1219   -4.9008    0.0000 C   0  0  0  0  0  0  0  0  0  0  0  0
    4.5698   -5.5139    0.0000 C   0  0  0  0  0  0  0  0  0  0  0  0
    4.8248   -6.2985    0.0000 C   0  0  1  0  0  0  0  0  0  0  0  0
    5.6317   -6.4701    0.0000 C   0  0  1  0  0  0  0  0  0  0  0  0
    5.8867   -7.2547    0.0000 C   0  0  0  0  0  0  0  0  0  0  0  0
    5.3346   -7.8678    0.0000 C   0  0  0  0  0  0  0  0  0  0  0  0
    4.5277   -7.6963    0.0000 C   0  0  0  0  0  0  0  0  0  0  0  0
    3.9756   -8.3093    0.0000 C   0  0  0  0  0  0  0  0  0  0  0  0
    3.1687   -8.1378    0.0000 C   0  0  0  0  0  0  0  0  0  0  0  0
    2.6166   -8.7509    0.0000 O   0  0  0  0  0  0  0  0  0  0  0  0
    2.9137   -7.3532    0.0000 C   0  0  0  0  0  0  0  0  0  0  0  0
    3.4658   -6.7401    0.0000 C   0  0  0  0  0  0  0  0  0  0  0  0
    4.2727   -6.9116    0.0000 C   0  0  2  0  0  0  0  0  0  0  0  0
    6.1838   -5.8570    0.0000 C   0  0  2  0  0  0  0  0  0  0  0  0
    7.0088   -5.8570    0.0000 C   0  0  0  0  0  0  0  0  0  0  0  0
    7.2637   -5.0723    0.0000 C   0  0  0  0  0  0  0  0  0  0  0  0
    6.5963   -4.5874    0.0000 C   0  0  2  0  0  0  0  0  0  0  0  0
    6.5963   -3.7624    0.0000 O   0  0  0  0  0  0  0  0  0  0  0  0
    7.3107   -3.3499    0.0000 C   0  0  0  0  0  0  0  0  0  0  0  0
    8.0252   -3.7624    0.0000 O   0  0  0  0  0  0  0  0  0  0  0  0
    7.3107   -2.5249    0.0000 C   0  0  0  0  0  0  0  0  0  0  0  0
    6.5963   -2.1124    0.0000 C   0  0  0  0  0  0  0  0  0  0  0  0
    6.5963   -1.2874    0.0000 C   0  0  0  0  0  0  0  0  0  0  0  0
    7.3107   -0.8749    0.0000 C   0  0  0  0  0  0  0  0  0  0  0  0
    7.3107   -0.0499    0.0000 C   0  0  0  0  0  0  0  0  0  0  0  0
    8.0252   -1.2874    0.0000 C   0  0  0  0  0  0  0  0  0  0  0  0
    8.0252   -2.1124    0.0000 C   0  0  0  0  0  0  0  0  0  0  0  0
    7.4482   -1.4249    0.0000 C   0  0  0  0  0  0  0  0  0  0  0  0
    7.4482   -1.9749    0.0000 C   0  0  0  0  0  0  0  0  0  0  0  0
  2  1  1  1  0  0  0
  2  3  1  0  0  0  0
  3  4  1  0  0  0  0
  5  4  1  1  0  0  0
  5  6  1  0  0  0  0
  6  7  1  6  0  0  0
  7  8  1  0  0  0  0
  8  9  1  0  0  0  0
  9 10  2  0  0  0  0
 10 11  1  0  0  0  0
 11 12  2  0  0  0  0
 11 13  1  0  0  0  0
 13 14  1  0  0  0  0
 15 14  1  6  0  0  0
  5 15  1  0  0  0  0
  9 15  1  0  0  0  0
  6 16  1  0  0  0  0
  2 16  1  0  0  0  0
 16 17  1  1  0  0  0
 17 18  1  0  0  0  0
 18 19  1  0  0  0  0
  2 19  1  0  0  0  0
 19 20  1  1  0  0  0
 20 21  1  0  0  0  0
 21 22  2  0  0  0  0
 21 23  1  0  0  0  0
 23 24  1  0  0  0  0
 24 25  1  0  0  0  0
 25 26  1  0  0  0  0
 26 27  1  0  0  0  0
 26 28  1  0  0  0  0
 28 29  1  0  0  0  0
 23 29  1  0  0  0  0
 26 30  1  0  0  0  0
 30 31  2  0  0  0  0
 23 31  1  0  0  0  0
M  END
>  <ID>
1880

>  <PREFERRED_NAME>
nandrolone cyclotate

>  <CAS_RN>
22263-51-0

>  <SYNONYMS>
nandrolone cyclotate
sanabolicum

>  <URL>
http://drugcentral.org/drugcard/1880/view

$$$$
