nefopam
  -INDIGO-06102311022D

 19 21  0  0  0  0  0  0  0  0999 V2000
    5.1447    2.1706    0.0000 C   0  0  0  0  0  0  0  0  0  0  0  0
    4.8290    1.4084    0.0000 N   0  0  0  0  0  0  0  0  0  0  0  0
    5.4124    0.8250    0.0000 C   0  0  0  0  0  0  0  0  0  0  0  0
    5.4124    0.0000    0.0000 C   0  0  0  0  0  0  0  0  0  0  0  0
    4.8290   -0.5834    0.0000 O   0  0  0  0  0  0  0  0  0  0  0  0
    4.0040   -0.5834    0.0000 C   0  0  0  0  0  0  0  0  0  0  0  0
    3.6883   -1.3456    0.0000 C   0  0  0  0  0  0  0  0  0  0  0  0
    4.1905   -2.0001    0.0000 C   0  0  0  0  0  0  0  0  0  0  0  0
    3.8748   -2.7623    0.0000 C   0  0  0  0  0  0  0  0  0  0  0  0
    3.0569   -2.8700    0.0000 C   0  0  0  0  0  0  0  0  0  0  0  0
    2.5547   -2.2154    0.0000 C   0  0  0  0  0  0  0  0  0  0  0  0
    2.8704   -1.4532    0.0000 C   0  0  0  0  0  0  0  0  0  0  0  0
    3.4207    0.0000    0.0000 C   0  0  0  0  0  0  0  0  0  0  0  0
    2.7062   -0.4125    0.0000 C   0  0  0  0  0  0  0  0  0  0  0  0
    1.9917    0.0000    0.0000 C   0  0  0  0  0  0  0  0  0  0  0  0
    1.9917    0.8250    0.0000 C   0  0  0  0  0  0  0  0  0  0  0  0
    2.7062    1.2375    0.0000 C   0  0  0  0  0  0  0  0  0  0  0  0
    3.4207    0.8250    0.0000 C   0  0  0  0  0  0  0  0  0  0  0  0
    4.0040    1.4084    0.0000 C   0  0  0  0  0  0  0  0  0  0  0  0
  1  2  1  0  0  0  0
  2  3  1  0  0  0  0
  3  4  1  0  0  0  0
  4  5  1  0  0  0  0
  5  6  1  0  0  0  0
  6  7  1  0  0  0  0
  7  8  4  0  0  0  0
  8  9  4  0  0  0  0
  9 10  4  0  0  0  0
 10 11  4  0  0  0  0
 11 12  4  0  0  0  0
  7 12  4  0  0  0  0
  6 13  1  0  0  0  0
 13 14  4  0  0  0  0
 14 15  4  0  0  0  0
 15 16  4  0  0  0  0
 16 17  4  0  0  0  0
 17 18  4  0  0  0  0
 13 18  4  0  0  0  0
 18 19  1  0  0  0  0
  2 19  1  0  0  0  0
M  END
>  <ID>
1891

>  <PREFERRED_NAME>
nefopam

>  <CAS_RN>
13669-70-0

>  <SYNONYMS>
nefopam
fenazoxine
(+/-)-Nefopam
nefopam hydrochloride
nefopam HCl

>  <URL>
http://drugcentral.org/drugcard/1891/view

$$$$
