nelfinavir
  -INDIGO-06102311022D

 40 43  0  0  1  0  0  0  0  0999 V2000
    1.3480   -4.8099    0.0000 C   0  0  0  0  0  0  0  0  0  0  0  0
    0.5230   -4.8099    0.0000 C   0  0  0  0  0  0  0  0  0  0  0  0
    0.1105   -4.0954    0.0000 C   0  0  0  0  0  0  0  0  0  0  0  0
   -0.7145   -4.0954    0.0000 C   0  0  0  0  0  0  0  0  0  0  0  0
   -1.1270   -4.8099    0.0000 C   0  0  0  0  0  0  0  0  0  0  0  0
   -0.7145   -5.5243    0.0000 C   0  0  0  0  0  0  0  0  0  0  0  0
    0.1105   -5.5243    0.0000 C   0  0  0  0  0  0  0  0  0  0  0  0
    0.5230   -6.2388    0.0000 O   0  0  0  0  0  0  0  0  0  0  0  0
    0.5230   -3.3809    0.0000 C   0  0  0  0  0  0  0  0  0  0  0  0
    1.3480   -3.3809    0.0000 O   0  0  0  0  0  0  0  0  0  0  0  0
    0.1105   -2.6664    0.0000 N   0  0  0  0  0  0  0  0  0  0  0  0
    0.5230   -1.9520    0.0000 C   0  0  1  0  0  0  0  0  0  0  0  0
    0.1105   -1.2375    0.0000 C   0  0  0  0  0  0  0  0  0  0  0  0
   -0.7145   -1.2375    0.0000 S   0  0  0  0  0  0  0  0  0  0  0  0
   -1.1270   -1.9520    0.0000 C   0  0  0  0  0  0  0  0  0  0  0  0
   -0.7145   -2.6664    0.0000 C   0  0  0  0  0  0  0  0  0  0  0  0
   -1.1270   -3.3809    0.0000 C   0  0  0  0  0  0  0  0  0  0  0  0
   -1.9520   -3.3809    0.0000 C   0  0  0  0  0  0  0  0  0  0  0  0
   -2.3645   -2.6664    0.0000 C   0  0  0  0  0  0  0  0  0  0  0  0
   -1.9520   -1.9520    0.0000 C   0  0  0  0  0  0  0  0  0  0  0  0
    1.3480   -1.9520    0.0000 C   0  0  2  0  0  0  0  0  0  0  0  0
    1.7605   -2.6664    0.0000 O   0  0  0  0  0  0  0  0  0  0  0  0
    1.7605   -1.2375    0.0000 C   0  0  0  0  0  0  0  0  0  0  0  0
    1.3480   -0.5230    0.0000 N   0  0  0  0  0  0  0  0  0  0  0  0
    0.5230   -0.5230    0.0000 C   0  0  0  0  0  0  0  0  0  0  0  0
    0.1105    0.1914    0.0000 C   0  0  1  0  0  0  0  0  0  0  0  0
   -0.7145    0.1914    0.0000 C   0  0  0  0  0  0  0  0  0  0  0  0
   -1.1270    0.9059    0.0000 C   0  0  0  0  0  0  0  0  0  0  0  0
   -0.7145    1.6204    0.0000 C   0  0  0  0  0  0  0  0  0  0  0  0
    0.1105    1.6204    0.0000 C   0  0  0  0  0  0  0  0  0  0  0  0
    0.5230    0.9059    0.0000 C   0  0  1  0  0  0  0  0  0  0  0  0
    1.3480    0.9059    0.0000 C   0  0  0  0  0  0  0  0  0  0  0  0
    1.7605    0.1914    0.0000 C   0  0  1  0  0  0  0  0  0  0  0  0
    2.5855    0.1914    0.0000 C   0  0  0  0  0  0  0  0  0  0  0  0
    2.9980   -0.5230    0.0000 O   0  0  0  0  0  0  0  0  0  0  0  0
    2.9980    0.9059    0.0000 N   0  0  0  0  0  0  0  0  0  0  0  0
    2.5855    1.6204    0.0000 C   0  0  0  0  0  0  0  0  0  0  0  0
    3.3000    2.0329    0.0000 C   0  0  0  0  0  0  0  0  0  0  0  0
    1.8711    1.2079    0.0000 C   0  0  0  0  0  0  0  0  0  0  0  0
    2.1730    2.3349    0.0000 C   0  0  0  0  0  0  0  0  0  0  0  0
  1  2  1  0  0  0  0
  2  3  4  0  0  0  0
  3  4  4  0  0  0  0
  4  5  4  0  0  0  0
  5  6  4  0  0  0  0
  6  7  4  0  0  0  0
  2  7  4  0  0  0  0
  7  8  1  0  0  0  0
  3  9  1  0  0  0  0
  9 10  2  0  0  0  0
  9 11  1  0  0  0  0
 12 11  1  1  0  0  0
 12 13  1  0  0  0  0
 13 14  1  0  0  0  0
 14 15  1  0  0  0  0
 15 16  4  0  0  0  0
 16 17  4  0  0  0  0
 17 18  4  0  0  0  0
 18 19  4  0  0  0  0
 19 20  4  0  0  0  0
 15 20  4  0  0  0  0
 12 21  1  0  0  0  0
 21 22  1  1  0  0  0
 21 23  1  0  0  0  0
 23 24  1  0  0  0  0
 24 25  1  0  0  0  0
 26 25  1  1  0  0  0
 26 27  1  0  0  0  0
 27 28  1  0  0  0  0
 28 29  1  0  0  0  0
 29 30  1  0  0  0  0
 31 30  1  1  0  0  0
 26 31  1  0  0  0  0
 31 32  1  0  0  0  0
 32 33  1  0  0  0  0
 24 33  1  0  0  0  0
 33 34  1  1  0  0  0
 34 35  2  0  0  0  0
 34 36  1  0  0  0  0
 36 37  1  0  0  0  0
 37 38  1  0  0  0  0
 37 39  1  0  0  0  0
 37 40  1  0  0  0  0
M  END
>  <ID>
1893

>  <PREFERRED_NAME>
nelfinavir

>  <CAS_RN>
159989-64-7

>  <SYNONYMS>
nelfinavir
viracept
nelfinavir mesylate
nelfinavir mesilate

>  <URL>
http://drugcentral.org/drugcard/1893/view

$$$$
