nicofuranose
  -INDIGO-06102311032D

 44 48  0  0  1  0  0  0  0  0999 V2000
    0.8769   -1.8619    0.0000 O   0  0  0  0  0  0  0  0  0  0  0  0
    1.4289   -2.4750    0.0000 C   0  0  2  0  0  0  0  0  0  0  0  0
    1.9810   -1.8619    0.0000 C   0  0  0  0  0  0  0  0  0  0  0  0
    1.7260   -1.0773    0.0000 O   0  0  0  0  0  0  0  0  0  0  0  0
    0.9191   -0.9058    0.0000 C   0  0  0  0  0  0  0  0  0  0  0  0
    0.3670   -1.5189    0.0000 O   0  0  0  0  0  0  0  0  0  0  0  0
    0.6641   -0.1211    0.0000 C   0  0  0  0  0  0  0  0  0  0  0  0
   -0.1428    0.0504    0.0000 C   0  0  0  0  0  0  0  0  0  0  0  0
   -0.3978    0.8350    0.0000 N   0  0  0  0  0  0  0  0  0  0  0  0
    0.1542    1.4481    0.0000 C   0  0  0  0  0  0  0  0  0  0  0  0
    0.9612    1.2766    0.0000 C   0  0  0  0  0  0  0  0  0  0  0  0
    1.2162    0.4920    0.0000 C   0  0  0  0  0  0  0  0  0  0  0  0
    2.0964   -2.9599    0.0000 O   0  0  0  0  0  0  0  0  0  0  0  0
    1.8414   -3.7445    0.0000 C   0  0  2  0  0  0  0  0  0  0  0  0
    2.3264   -4.4120    0.0000 C   0  0  0  0  0  0  0  0  0  0  0  0
    3.1468   -4.3257    0.0000 O   0  0  0  0  0  0  0  0  0  0  0  0
    3.4824   -3.5721    0.0000 C   0  0  0  0  0  0  0  0  0  0  0  0
    2.9975   -2.9046    0.0000 O   0  0  0  0  0  0  0  0  0  0  0  0
    4.3029   -3.4858    0.0000 C   0  0  0  0  0  0  0  0  0  0  0  0
    4.6384   -2.7322    0.0000 C   0  0  0  0  0  0  0  0  0  0  0  0
    5.4589   -2.6459    0.0000 N   0  0  0  0  0  0  0  0  0  0  0  0
    5.9438   -3.3134    0.0000 C   0  0  0  0  0  0  0  0  0  0  0  0
    5.6083   -4.0670    0.0000 C   0  0  0  0  0  0  0  0  0  0  0  0
    4.7878   -4.1533    0.0000 C   0  0  0  0  0  0  0  0  0  0  0  0
    1.0164   -3.7445    0.0000 C   0  0  1  0  0  0  0  0  0  0  0  0
    0.5315   -4.4120    0.0000 O   0  0  0  0  0  0  0  0  0  0  0  0
    0.8671   -5.1657    0.0000 C   0  0  0  0  0  0  0  0  0  0  0  0
    1.6876   -5.2519    0.0000 O   0  0  0  0  0  0  0  0  0  0  0  0
    0.3822   -5.8331    0.0000 C   0  0  0  0  0  0  0  0  0  0  0  0
    0.7177   -6.5868    0.0000 C   0  0  0  0  0  0  0  0  0  0  0  0
    0.2328   -7.2542    0.0000 N   0  0  0  0  0  0  0  0  0  0  0  0
   -0.5877   -7.1680    0.0000 C   0  0  0  0  0  0  0  0  0  0  0  0
   -0.9232   -6.4143    0.0000 C   0  0  0  0  0  0  0  0  0  0  0  0
   -0.4383   -5.7469    0.0000 C   0  0  0  0  0  0  0  0  0  0  0  0
    0.7615   -2.9599    0.0000 C   0  0  2  0  0  0  0  0  0  0  0  0
   -0.0231   -2.7050    0.0000 O   0  0  0  0  0  0  0  0  0  0  0  0
   -0.6362   -3.2570    0.0000 C   0  0  0  0  0  0  0  0  0  0  0  0
   -0.4647   -4.0640    0.0000 O   0  0  0  0  0  0  0  0  0  0  0  0
   -1.4208   -3.0021    0.0000 C   0  0  0  0  0  0  0  0  0  0  0  0
   -2.0339   -3.5541    0.0000 C   0  0  0  0  0  0  0  0  0  0  0  0
   -2.8186   -3.2992    0.0000 N   0  0  0  0  0  0  0  0  0  0  0  0
   -2.9901   -2.4922    0.0000 C   0  0  0  0  0  0  0  0  0  0  0  0
   -2.3770   -1.9402    0.0000 C   0  0  0  0  0  0  0  0  0  0  0  0
   -1.5924   -2.1951    0.0000 C   0  0  0  0  0  0  0  0  0  0  0  0
  2  1  1  6  0  0  0
  2  3  1  1  0  0  0
  3  4  1  0  0  0  0
  4  5  1  0  0  0  0
  5  6  2  0  0  0  0
  5  7  1  0  0  0  0
  7  8  4  0  0  0  0
  8  9  4  0  0  0  0
  9 10  4  0  0  0  0
 10 11  4  0  0  0  0
 11 12  4  0  0  0  0
  7 12  4  0  0  0  0
  2 13  1  0  0  0  0
 13 14  1  0  0  0  0
 14 15  1  6  0  0  0
 15 16  1  0  0  0  0
 16 17  1  0  0  0  0
 17 18  2  0  0  0  0
 17 19  1  0  0  0  0
 19 20  4  0  0  0  0
 20 21  4  0  0  0  0
 21 22  4  0  0  0  0
 22 23  4  0  0  0  0
 23 24  4  0  0  0  0
 19 24  4  0  0  0  0
 14 25  1  0  0  0  0
 25 26  1  1  0  0  0
 26 27  1  0  0  0  0
 27 28  2  0  0  0  0
 27 29  1  0  0  0  0
 29 30  4  0  0  0  0
 30 31  4  0  0  0  0
 31 32  4  0  0  0  0
 32 33  4  0  0  0  0
 33 34  4  0  0  0  0
 29 34  4  0  0  0  0
 25 35  1  0  0  0  0
  2 35  1  0  0  0  0
 35 36  1  6  0  0  0
 36 37  1  0  0  0  0
 37 38  2  0  0  0  0
 37 39  1  0  0  0  0
 39 40  4  0  0  0  0
 40 41  4  0  0  0  0
 41 42  4  0  0  0  0
 42 43  4  0  0  0  0
 43 44  4  0  0  0  0
 39 44  4  0  0  0  0
M  END
>  <ID>
1916

>  <PREFERRED_NAME>
nicofuranose

>  <CAS_RN>
15351-13-0

>  <SYNONYMS>
nicofuranose
bradilan
L-Nicofuranosum
nicofurazone

>  <URL>
http://drugcentral.org/drugcard/1916/view

$$$$
