nicomorphine
  -INDIGO-06102311032D

 37 43  0  0  1  0  0  0  0  0999 V2000
    1.3687   -3.6166    0.0000 C   0  0  0  0  0  0  0  0  0  0  0  0
    1.4911   -2.8007    0.0000 N   0  0  0  0  0  0  0  0  0  0  0  0
    0.9178   -2.2274    0.0000 C   0  0  0  0  0  0  0  0  0  0  0  0
    1.2516   -1.2767    0.0000 C   0  0  0  0  0  0  0  0  0  0  0  0
    2.0883   -1.0030    0.0000 C   0  0  1  0  0  0  0  0  0  0  0  0
    1.7813   -0.2307    0.0000 C   0  0  1  0  0  0  0  0  0  0  0  0
    2.4947    0.2329    0.0000 O   0  0  0  0  0  0  0  0  0  0  0  0
    3.2120   -0.2394    0.0000 C   0  0  0  0  0  0  0  0  0  0  0  0
    2.9315   -1.0038    0.0000 C   0  0  0  0  0  0  0  0  0  0  0  0
    3.3909   -1.7147    0.0000 C   0  0  0  0  0  0  0  0  0  0  0  0
    3.0088   -2.4505    0.0000 C   0  0  0  0  0  0  0  0  0  0  0  0
    2.2017   -2.4239    0.0000 C   0  0  2  0  0  0  0  0  0  0  0  0
    1.8663   -1.5883    0.0000 C   0  0  2  0  0  0  0  0  0  0  0  0
    0.9058   -1.6659    0.0000 C   0  0  0  0  0  0  0  0  0  0  0  0
    0.4560   -0.9584    0.0000 C   0  0  0  0  0  0  0  0  0  0  0  0
    0.9127   -0.2516    0.0000 C   0  0  2  0  0  0  0  0  0  0  0  0
    0.5095    0.4682    0.0000 O   0  0  0  0  0  0  0  0  0  0  0  0
   -0.3155    0.4789    0.0000 C   0  0  0  0  0  0  0  0  0  0  0  0
   -0.7372   -0.2301    0.0000 O   0  0  0  0  0  0  0  0  0  0  0  0
   -0.7186    1.1987    0.0000 C   0  0  0  0  0  0  0  0  0  0  0  0
   -1.5436    1.2094    0.0000 C   0  0  0  0  0  0  0  0  0  0  0  0
   -1.9468    1.9292    0.0000 N   0  0  0  0  0  0  0  0  0  0  0  0
   -1.5250    2.6382    0.0000 C   0  0  0  0  0  0  0  0  0  0  0  0
   -0.7001    2.6275    0.0000 C   0  0  0  0  0  0  0  0  0  0  0  0
   -0.2969    1.9078    0.0000 C   0  0  0  0  0  0  0  0  0  0  0  0
    4.2110   -1.6448    0.0000 C   0  0  0  0  0  0  0  0  0  0  0  0
    4.5505   -0.8890    0.0000 C   0  0  0  0  0  0  0  0  0  0  0  0
    4.0607   -0.2061    0.0000 C   0  0  0  0  0  0  0  0  0  0  0  0
    4.4230    0.5351    0.0000 O   0  0  0  0  0  0  0  0  0  0  0  0
    3.9622    1.2195    0.0000 C   0  0  0  0  0  0  0  0  0  0  0  0
    3.1392    1.1626    0.0000 O   0  0  0  0  0  0  0  0  0  0  0  0
    4.3246    1.9606    0.0000 C   0  0  0  0  0  0  0  0  0  0  0  0
    3.8638    2.6450    0.0000 C   0  0  0  0  0  0  0  0  0  0  0  0
    4.2261    3.3862    0.0000 N   0  0  0  0  0  0  0  0  0  0  0  0
    5.0492    3.4430    0.0000 C   0  0  0  0  0  0  0  0  0  0  0  0
    5.5099    2.7586    0.0000 C   0  0  0  0  0  0  0  0  0  0  0  0
    5.1476    2.0175    0.0000 C   0  0  0  0  0  0  0  0  0  0  0  0
  1  2  1  0  0  0  0
  2  3  1  0  0  0  0
  3  4  1  0  0  0  0
  4  5  1  0  0  0  0
  5  6  1  0  0  0  0
  6  7  1  6  0  0  0
  7  8  1  0  0  0  0
  8  9  4  0  0  0  0
  5  9  1  1  0  0  0
  9 10  4  0  0  0  0
 10 11  1  0  0  0  0
 11 12  1  0  0  0  0
 12  2  1  1  0  0  0
 12 13  1  0  0  0  0
  5 13  1  0  0  0  0
 13 14  1  6  0  0  0
 14 15  2  0  0  0  0
 15 16  1  0  0  0  0
  6 16  1  0  0  0  0
 16 17  1  6  0  0  0
 17 18  1  0  0  0  0
 18 19  2  0  0  0  0
 18 20  1  0  0  0  0
 20 21  4  0  0  0  0
 21 22  4  0  0  0  0
 22 23  4  0  0  0  0
 23 24  4  0  0  0  0
 24 25  4  0  0  0  0
 20 25  4  0  0  0  0
 10 26  4  0  0  0  0
 26 27  4  0  0  0  0
 27 28  4  0  0  0  0
  8 28  4  0  0  0  0
 28 29  1  0  0  0  0
 29 30  1  0  0  0  0
 30 31  2  0  0  0  0
 30 32  1  0  0  0  0
 32 33  4  0  0  0  0
 33 34  4  0  0  0  0
 34 35  4  0  0  0  0
 35 36  4  0  0  0  0
 36 37  4  0  0  0  0
 32 37  4  0  0  0  0
M  END
>  <ID>
1918

>  <PREFERRED_NAME>
nicomorphine

>  <CAS_RN>
639-48-5

>  <SYNONYMS>
nicomorphine
morphine dinicotinate

>  <URL>
http://drugcentral.org/drugcard/1918/view

$$$$
