nifurzide
  -INDIGO-06102311032D

 23 24  0  0  0  0  0  0  0  0999 V2000
    1.0796   -3.9609    0.0000 O   0  0  0  0  0  0  0  0  0  0  0  0
    0.3651   -4.3734    0.0000 N   0  0  0  0  0  0  0  0  0  0  0  0
   -0.3493   -3.9609    0.0000 O   0  0  0  0  0  0  0  0  0  0  0  0
    0.3651   -5.1984    0.0000 C   0  0  0  0  0  0  0  0  0  0  0  0
    1.0326   -5.6833    0.0000 C   0  0  0  0  0  0  0  0  0  0  0  0
    0.7776   -6.4679    0.0000 C   0  0  0  0  0  0  0  0  0  0  0  0
   -0.0474   -6.4679    0.0000 C   0  0  0  0  0  0  0  0  0  0  0  0
   -0.3023   -5.6833    0.0000 O   0  0  0  0  0  0  0  0  0  0  0  0
   -0.5323   -7.1353    0.0000 C   0  0  0  0  0  0  0  0  0  0  0  0
   -1.3528   -7.0491    0.0000 C   0  0  0  0  0  0  0  0  0  0  0  0
   -1.8377   -7.7165    0.0000 C   0  0  0  0  0  0  0  0  0  0  0  0
   -2.6582   -7.6303    0.0000 N   0  0  0  0  0  0  0  0  0  0  0  0
   -3.1431   -8.2978    0.0000 N   0  0  0  0  0  0  0  0  0  0  0  0
   -3.9636   -8.2115    0.0000 C   0  0  0  0  0  0  0  0  0  0  0  0
   -4.2991   -7.4578    0.0000 O   0  0  0  0  0  0  0  0  0  0  0  0
   -4.4485   -8.8790    0.0000 C   0  0  0  0  0  0  0  0  0  0  0  0
   -4.1936   -9.6636    0.0000 C   0  0  0  0  0  0  0  0  0  0  0  0
   -4.8610  -10.1485    0.0000 C   0  0  0  0  0  0  0  0  0  0  0  0
   -5.5284   -9.6636    0.0000 C   0  0  0  0  0  0  0  0  0  0  0  0
   -5.2735   -8.8790    0.0000 S   0  0  0  0  0  0  0  0  0  0  0  0
   -6.3131   -9.9185    0.0000 N   0  0  0  0  0  0  0  0  0  0  0  0
   -6.4846  -10.7255    0.0000 O   0  0  0  0  0  0  0  0  0  0  0  0
   -6.9261   -9.3665    0.0000 O   0  0  0  0  0  0  0  0  0  0  0  0
  1  2  1  0  0  0  0
  2  3  2  0  0  0  0
  2  4  1  0  0  0  0
  4  5  4  0  0  0  0
  5  6  4  0  0  0  0
  6  7  4  0  0  0  0
  7  8  4  0  0  0  0
  4  8  4  0  0  0  0
  7  9  1  0  0  0  0
  9 10  2  0  0  0  0
 10 11  1  0  0  0  0
 11 12  2  0  0  0  0
 12 13  1  0  0  0  0
 13 14  1  0  0  0  0
 14 15  2  0  0  0  0
 14 16  1  0  0  0  0
 16 17  4  0  0  0  0
 17 18  4  0  0  0  0
 18 19  4  0  0  0  0
 19 20  4  0  0  0  0
 16 20  4  0  0  0  0
 19 21  1  0  0  0  0
 21 22  1  0  0  0  0
 21 23  2  0  0  0  0
M  CHG  4   1  -1   2   1  21   1  22  -1
M  END
>  <ID>
1931

>  <PREFERRED_NAME>
nifurzide

>  <CAS_RN>
39978-42-2

>  <SYNONYMS>
nifurzide
ricridene

>  <URL>
http://drugcentral.org/drugcard/1931/view

$$$$
