nifurtoinol
  -INDIGO-06102311032D

 19 20  0  0  0  0  0  0  0  0999 V2000
    1.6738   -1.1654    0.0000 O   0  0  0  0  0  0  0  0  0  0  0  0
    0.9593   -1.5779    0.0000 C   0  0  0  0  0  0  0  0  0  0  0  0
    0.9593   -2.4029    0.0000 N   0  0  0  0  0  0  0  0  0  0  0  0
    1.6268   -2.8879    0.0000 C   0  0  0  0  0  0  0  0  0  0  0  0
    2.4114   -2.6329    0.0000 O   0  0  0  0  0  0  0  0  0  0  0  0
    1.3718   -3.6725    0.0000 C   0  0  0  0  0  0  0  0  0  0  0  0
    0.5468   -3.6725    0.0000 N   0  0  0  0  0  0  0  0  0  0  0  0
    0.0619   -4.3399    0.0000 N   0  0  0  0  0  0  0  0  0  0  0  0
   -0.7586   -4.2537    0.0000 C   0  0  0  0  0  0  0  0  0  0  0  0
   -1.2435   -4.9211    0.0000 C   0  0  0  0  0  0  0  0  0  0  0  0
   -0.9886   -5.7057    0.0000 C   0  0  0  0  0  0  0  0  0  0  0  0
   -1.6560   -6.1907    0.0000 C   0  0  0  0  0  0  0  0  0  0  0  0
   -2.3234   -5.7057    0.0000 C   0  0  0  0  0  0  0  0  0  0  0  0
   -2.0685   -4.9211    0.0000 O   0  0  0  0  0  0  0  0  0  0  0  0
   -3.1081   -5.9607    0.0000 N   0  0  0  0  0  0  0  0  0  0  0  0
   -3.2796   -6.7676    0.0000 O   0  0  0  0  0  0  0  0  0  0  0  0
   -3.7212   -5.4086    0.0000 O   0  0  0  0  0  0  0  0  0  0  0  0
    0.2919   -2.8879    0.0000 C   0  0  0  0  0  0  0  0  0  0  0  0
   -0.4927   -2.6329    0.0000 O   0  0  0  0  0  0  0  0  0  0  0  0
  1  2  1  0  0  0  0
  2  3  1  0  0  0  0
  3  4  1  0  0  0  0
  4  5  2  0  0  0  0
  4  6  1  0  0  0  0
  6  7  1  0  0  0  0
  7  8  1  0  0  0  0
  8  9  2  0  0  0  0
  9 10  1  0  0  0  0
 10 11  4  0  0  0  0
 11 12  4  0  0  0  0
 12 13  4  0  0  0  0
 13 14  4  0  0  0  0
 10 14  4  0  0  0  0
 13 15  1  0  0  0  0
 15 16  1  0  0  0  0
 15 17  2  0  0  0  0
  7 18  1  0  0  0  0
  3 18  1  0  0  0  0
 18 19  2  0  0  0  0
M  CHG  2  15   1  16  -1
M  END
>  <ID>
1930

>  <PREFERRED_NAME>
nifurtoinol

>  <CAS_RN>
1088-92-2

>  <SYNONYMS>
nifurtoinol
hydroxymethylnitrofurantoin
urfadine

>  <URL>
http://drugcentral.org/drugcard/1930/view

$$$$
