nifurtimox
  -INDIGO-06102311032D

 19 20  0  0  0  0  0  0  0  0999 V2000
    2.7512    0.7634    0.0000 C   0  0  0  0  0  0  0  0  0  0  0  0
    3.4656    1.1759    0.0000 C   0  0  0  0  0  0  0  0  0  0  0  0
    3.4656    2.0009    0.0000 C   0  0  0  0  0  0  0  0  0  0  0  0
    4.1801    2.4134    0.0000 S   0  0  0  0  0  0  0  0  0  0  0  0
    3.6498    3.0454    0.0000 O   0  0  0  0  0  0  0  0  0  0  0  0
    4.7104    3.0454    0.0000 O   0  0  0  0  0  0  0  0  0  0  0  0
    4.8946    2.0009    0.0000 C   0  0  0  0  0  0  0  0  0  0  0  0
    4.8946    1.1759    0.0000 C   0  0  0  0  0  0  0  0  0  0  0  0
    4.1801    0.7634    0.0000 N   0  0  0  0  0  0  0  0  0  0  0  0
    4.1801   -0.0616    0.0000 N   0  0  0  0  0  0  0  0  0  0  0  0
    3.4656   -0.4741    0.0000 C   0  0  0  0  0  0  0  0  0  0  0  0
    3.4656   -1.2991    0.0000 C   0  0  0  0  0  0  0  0  0  0  0  0
    4.1331   -1.7840    0.0000 C   0  0  0  0  0  0  0  0  0  0  0  0
    3.8781   -2.5687    0.0000 C   0  0  0  0  0  0  0  0  0  0  0  0
    3.0531   -2.5687    0.0000 C   0  0  0  0  0  0  0  0  0  0  0  0
    2.7982   -1.7840    0.0000 O   0  0  0  0  0  0  0  0  0  0  0  0
    2.5682   -3.2361    0.0000 N   0  0  0  0  0  0  0  0  0  0  0  0
    2.9038   -3.9898    0.0000 O   0  0  0  0  0  0  0  0  0  0  0  0
    1.7477   -3.1499    0.0000 O   0  0  0  0  0  0  0  0  0  0  0  0
  1  2  1  0  0  0  0
  2  3  1  0  0  0  0
  3  4  1  0  0  0  0
  4  5  2  0  0  0  0
  4  6  2  0  0  0  0
  4  7  1  0  0  0  0
  7  8  1  0  0  0  0
  8  9  1  0  0  0  0
  2  9  1  0  0  0  0
  9 10  1  0  0  0  0
 10 11  2  0  0  0  0
 11 12  1  0  0  0  0
 12 13  4  0  0  0  0
 13 14  4  0  0  0  0
 14 15  4  0  0  0  0
 15 16  4  0  0  0  0
 12 16  4  0  0  0  0
 15 17  1  0  0  0  0
 17 18  1  0  0  0  0
 17 19  2  0  0  0  0
M  CHG  2  17   1  18  -1
M  END
>  <ID>
1929

>  <PREFERRED_NAME>
nifurtimox

>  <CAS_RN>
23256-30-6

>  <SYNONYMS>
nifurtimox
BAY A2502
lampit
Bayer 2502

>  <URL>
http://drugcentral.org/drugcard/1929/view

$$$$
