nitroxazepine
  -INDIGO-06102311102D

 25 27  0  0  0  0  0  0  0  0999 V2000
   -1.9394   -2.3662    0.0000 C   0  0  0  0  0  0  0  0  0  0  0  0
   -1.2250   -1.9537    0.0000 N   0  0  0  0  0  0  0  0  0  0  0  0
   -1.2250   -1.1287    0.0000 C   0  0  0  0  0  0  0  0  0  0  0  0
   -0.5105   -2.3662    0.0000 C   0  0  0  0  0  0  0  0  0  0  0  0
    0.2040   -1.9537    0.0000 C   0  0  0  0  0  0  0  0  0  0  0  0
    0.9184   -2.3662    0.0000 C   0  0  0  0  0  0  0  0  0  0  0  0
    1.6329   -1.9537    0.0000 N   0  0  0  0  0  0  0  0  0  0  0  0
    1.5713   -1.1310    0.0000 C   0  0  0  0  0  0  0  0  0  0  0  0
    2.1760   -0.5698    0.0000 C   0  0  0  0  0  0  0  0  0  0  0  0
    2.9918   -0.6928    0.0000 O   0  0  0  0  0  0  0  0  0  0  0  0
    3.4043   -1.4073    0.0000 C   0  0  0  0  0  0  0  0  0  0  0  0
    4.2201   -1.2843    0.0000 C   0  0  0  0  0  0  0  0  0  0  0  0
    4.7345   -1.9293    0.0000 C   0  0  0  0  0  0  0  0  0  0  0  0
    4.4331   -2.6973    0.0000 C   0  0  0  0  0  0  0  0  0  0  0  0
    3.6173   -2.8203    0.0000 C   0  0  0  0  0  0  0  0  0  0  0  0
    3.1029   -2.1752    0.0000 C   0  0  0  0  0  0  0  0  0  0  0  0
    2.3146   -2.4184    0.0000 C   0  0  0  0  0  0  0  0  0  0  0  0
    2.1916   -3.2342    0.0000 O   0  0  0  0  0  0  0  0  0  0  0  0
    4.9475   -3.3423    0.0000 N   0  0  0  0  0  0  0  0  0  0  0  0
    5.7632   -3.2194    0.0000 O   0  0  0  0  0  0  0  0  0  0  0  0
    4.6460   -4.1103    0.0000 O   0  0  0  0  0  0  0  0  0  0  0  0
    1.9925    0.2345    0.0000 C   0  0  0  0  0  0  0  0  0  0  0  0
    1.2041    0.4776    0.0000 C   0  0  0  0  0  0  0  0  0  0  0  0
    0.5993   -0.0835    0.0000 C   0  0  0  0  0  0  0  0  0  0  0  0
    0.7829   -0.8878    0.0000 C   0  0  0  0  0  0  0  0  0  0  0  0
  1  2  1  0  0  0  0
  2  3  1  0  0  0  0
  2  4  1  0  0  0  0
  4  5  1  0  0  0  0
  5  6  1  0  0  0  0
  6  7  1  0  0  0  0
  7  8  1  0  0  0  0
  8  9  4  0  0  0  0
  9 10  1  0  0  0  0
 10 11  1  0  0  0  0
 11 12  4  0  0  0  0
 12 13  4  0  0  0  0
 13 14  4  0  0  0  0
 14 15  4  0  0  0  0
 15 16  4  0  0  0  0
 11 16  4  0  0  0  0
 16 17  1  0  0  0  0
  7 17  1  0  0  0  0
 17 18  2  0  0  0  0
 14 19  1  0  0  0  0
 19 20  1  0  0  0  0
 19 21  2  0  0  0  0
  9 22  4  0  0  0  0
 22 23  4  0  0  0  0
 23 24  4  0  0  0  0
 24 25  4  0  0  0  0
  8 25  4  0  0  0  0
M  CHG  2  19   1  20  -1
M  END
>  <ID>
4003

>  <PREFERRED_NAME>
nitroxazepine

>  <CAS_RN>
16398-39-3

>  <SYNONYMS>
nitroxazepine
nitroxazepine hydrochloride
sintamil
nitroxazepine HCl

>  <URL>
http://drugcentral.org/drugcard/4003/view

$$$$
