nizofenone
  -INDIGO-06102311032D

 29 31  0  0  0  0  0  0  0  0999 V2000
    1.5356   -0.0616    0.0000 C   0  0  0  0  0  0  0  0  0  0  0  0
    0.8212   -0.4741    0.0000 C   0  0  0  0  0  0  0  0  0  0  0  0
    0.8212   -1.2991    0.0000 N   0  0  0  0  0  0  0  0  0  0  0  0
    1.5356   -1.7116    0.0000 C   0  0  0  0  0  0  0  0  0  0  0  0
    1.5356   -2.5366    0.0000 C   0  0  0  0  0  0  0  0  0  0  0  0
    0.1067   -1.7116    0.0000 C   0  0  0  0  0  0  0  0  0  0  0  0
    0.1067   -2.5366    0.0000 C   0  0  0  0  0  0  0  0  0  0  0  0
    0.7741   -3.0215    0.0000 N   0  0  0  0  0  0  0  0  0  0  0  0
    0.5192   -3.8062    0.0000 C   0  0  0  0  0  0  0  0  0  0  0  0
   -0.3058   -3.8062    0.0000 C   0  0  0  0  0  0  0  0  0  0  0  0
   -0.5607   -3.0215    0.0000 N   0  0  0  0  0  0  0  0  0  0  0  0
   -1.3454   -2.7666    0.0000 C   0  0  0  0  0  0  0  0  0  0  0  0
   -1.9584   -3.3186    0.0000 C   0  0  0  0  0  0  0  0  0  0  0  0
   -2.7431   -3.0637    0.0000 C   0  0  0  0  0  0  0  0  0  0  0  0
   -2.9146   -2.2567    0.0000 C   0  0  0  0  0  0  0  0  0  0  0  0
   -2.3015   -1.7047    0.0000 C   0  0  0  0  0  0  0  0  0  0  0  0
   -1.5169   -1.9596    0.0000 C   0  0  0  0  0  0  0  0  0  0  0  0
   -3.6992   -2.0018    0.0000 N   0  0  0  0  0  0  0  0  0  0  0  0
   -3.8707   -1.1948    0.0000 O   0  0  0  0  0  0  0  0  0  0  0  0
   -4.3123   -2.5538    0.0000 O   0  0  0  0  0  0  0  0  0  0  0  0
   -1.7869   -4.1256    0.0000 C   0  0  0  0  0  0  0  0  0  0  0  0
   -1.0023   -4.3805    0.0000 O   0  0  0  0  0  0  0  0  0  0  0  0
   -2.4000   -4.6776    0.0000 C   0  0  0  0  0  0  0  0  0  0  0  0
   -2.2285   -5.4846    0.0000 C   0  0  0  0  0  0  0  0  0  0  0  0
   -1.4439   -5.7395    0.0000 Cl  0  0  0  0  0  0  0  0  0  0  0  0
   -2.8416   -6.0366    0.0000 C   0  0  0  0  0  0  0  0  0  0  0  0
   -3.6262   -5.7817    0.0000 C   0  0  0  0  0  0  0  0  0  0  0  0
   -3.7977   -4.9747    0.0000 C   0  0  0  0  0  0  0  0  0  0  0  0
   -3.1846   -4.4227    0.0000 C   0  0  0  0  0  0  0  0  0  0  0  0
  1  2  1  0  0  0  0
  2  3  1  0  0  0  0
  3  4  1  0  0  0  0
  4  5  1  0  0  0  0
  3  6  1  0  0  0  0
  6  7  1  0  0  0  0
  7  8  4  0  0  0  0
  8  9  4  0  0  0  0
  9 10  4  0  0  0  0
 10 11  4  0  0  0  0
  7 11  4  0  0  0  0
 11 12  1  0  0  0  0
 12 13  4  0  0  0  0
 13 14  4  0  0  0  0
 14 15  4  0  0  0  0
 15 16  4  0  0  0  0
 16 17  4  0  0  0  0
 12 17  4  0  0  0  0
 15 18  1  0  0  0  0
 18 19  1  0  0  0  0
 18 20  2  0  0  0  0
 13 21  1  0  0  0  0
 21 22  2  0  0  0  0
 21 23  1  0  0  0  0
 23 24  4  0  0  0  0
 24 25  1  0  0  0  0
 24 26  4  0  0  0  0
 26 27  4  0  0  0  0
 27 28  4  0  0  0  0
 28 29  4  0  0  0  0
 23 29  4  0  0  0  0
M  CHG  2  18   1  19  -1
M  END
>  <ID>
1956

>  <PREFERRED_NAME>
nizofenone

>  <CAS_RN>
54533-85-6

>  <SYNONYMS>
nizofenone
Y-9179
nizofenone fumarate
ekonal
midafenone

>  <URL>
http://drugcentral.org/drugcard/1956/view

$$$$
