norethindrone enanthate
  -INDIGO-06102311032D

 30 33  0  0  1  0  0  0  0  0999 V2000
    6.3289   -5.5020    0.0000 C   0  0  0  0  0  0  0  0  0  0  0  0
    7.0433   -5.9145    0.0000 C   0  0  0  0  0  0  0  0  0  0  0  0
    7.7578   -5.5020    0.0000 C   0  0  0  0  0  0  0  0  0  0  0  0
    8.4723   -5.9145    0.0000 C   0  0  0  0  0  0  0  0  0  0  0  0
    9.1867   -5.5020    0.0000 C   0  0  0  0  0  0  0  0  0  0  0  0
    9.9012   -5.9145    0.0000 C   0  0  0  0  0  0  0  0  0  0  0  0
   10.6157   -5.5020    0.0000 C   0  0  0  0  0  0  0  0  0  0  0  0
   10.6157   -4.6770    0.0000 O   0  0  0  0  0  0  0  0  0  0  0  0
   11.3302   -5.9145    0.0000 O   0  0  0  0  0  0  0  0  0  0  0  0
   12.0446   -5.5020    0.0000 C   0  0  1  0  0  0  0  0  0  0  0  0
   11.5597   -4.8346    0.0000 C   0  0  0  0  0  0  0  0  0  0  0  0
   12.0446   -4.1672    0.0000 C   0  0  0  0  0  0  0  0  0  0  0  0
   12.8293   -4.4221    0.0000 C   0  0  1  0  0  0  0  0  0  0  0  0
   13.5437   -4.0096    0.0000 C   0  0  2  0  0  0  0  0  0  0  0  0
   13.5437   -3.1846    0.0000 C   0  0  0  0  0  0  0  0  0  0  0  0
   14.2582   -2.7721    0.0000 C   0  0  0  0  0  0  0  0  0  0  0  0
   14.9727   -3.1846    0.0000 C   0  0  0  0  0  0  0  0  0  0  0  0
   15.6871   -2.7721    0.0000 C   0  0  0  0  0  0  0  0  0  0  0  0
   16.4016   -3.1846    0.0000 C   0  0  0  0  0  0  0  0  0  0  0  0
   17.1161   -2.7721    0.0000 O   0  0  0  0  0  0  0  0  0  0  0  0
   16.4016   -4.0096    0.0000 C   0  0  0  0  0  0  0  0  0  0  0  0
   15.6871   -4.4221    0.0000 C   0  0  0  0  0  0  0  0  0  0  0  0
   14.9727   -4.0096    0.0000 C   0  0  2  0  0  0  0  0  0  0  0  0
   14.2582   -4.4221    0.0000 C   0  0  1  0  0  0  0  0  0  0  0  0
   14.2582   -5.2471    0.0000 C   0  0  0  0  0  0  0  0  0  0  0  0
   13.5437   -5.6596    0.0000 C   0  0  0  0  0  0  0  0  0  0  0  0
   12.8293   -5.2471    0.0000 C   0  0  2  0  0  0  0  0  0  0  0  0
   12.7430   -6.0676    0.0000 C   0  0  0  0  0  0  0  0  0  0  0  0
   12.3802   -6.2557    0.0000 C   0  0  0  0  0  0  0  0  0  0  0  0
   12.7157   -7.0094    0.0000 C   0  0  0  0  0  0  0  0  0  0  0  0
  1  2  1  0  0  0  0
  2  3  1  0  0  0  0
  3  4  1  0  0  0  0
  4  5  1  0  0  0  0
  5  6  1  0  0  0  0
  6  7  1  0  0  0  0
  7  8  2  0  0  0  0
  7  9  1  0  0  0  0
 10  9  1  1  0  0  0
 10 11  1  0  0  0  0
 11 12  1  0  0  0  0
 13 12  1  1  0  0  0
 13 14  1  0  0  0  0
 14 15  1  6  0  0  0
 15 16  1  0  0  0  0
 16 17  1  0  0  0  0
 17 18  2  0  0  0  0
 18 19  1  0  0  0  0
 19 20  2  0  0  0  0
 19 21  1  0  0  0  0
 21 22  1  0  0  0  0
 23 22  1  6  0  0  0
 17 23  1  0  0  0  0
 23 24  1  0  0  0  0
 14 24  1  0  0  0  0
 24 25  1  1  0  0  0
 25 26  1  0  0  0  0
 26 27  1  0  0  0  0
 10 27  1  0  0  0  0
 13 27  1  0  0  0  0
 27 28  1  1  0  0  0
 10 29  1  6  0  0  0
 29 30  3  0  0  0  0
M  END
>  <ID>
1964

>  <PREFERRED_NAME>
norethindrone enanthate

>  <CAS_RN>
3836-23-5

>  <SYNONYMS>
norethindrone enanthate
norethisterone enanthate
norethisterone heptanoate
norigest
noristerat

>  <URL>
http://drugcentral.org/drugcard/1964/view

$$$$
