oleandomycin
  -INDIGO-06102311032D

 48 51  0  0  1  0  0  0  0  0999 V2000
    6.0916    1.0070    0.0000 C   0  0  0  0  0  0  0  0  0  0  0  0
    5.2907    0.8088    0.0000 O   0  0  0  0  0  0  0  0  0  0  0  0
    5.0619    0.0162    0.0000 C   0  0  1  0  0  0  0  0  0  0  0  0
    4.2611   -0.1820    0.0000 C   0  0  0  0  0  0  0  0  0  0  0  0
    4.0323   -0.9746    0.0000 C   0  0  2  0  0  0  0  0  0  0  0  0
    3.2314   -1.1728    0.0000 O   0  0  0  0  0  0  0  0  0  0  0  0
    2.6594   -0.5783    0.0000 C   0  0  1  0  0  0  0  0  0  0  0  0
    2.4306   -1.3709    0.0000 C   0  0  2  0  0  0  0  0  0  0  0  0
    3.0026   -1.9654    0.0000 C   0  0  0  0  0  0  0  0  0  0  0  0
    1.6297   -1.5691    0.0000 C   0  0  1  0  0  0  0  0  0  0  0  0
    1.4009   -2.3617    0.0000 O   0  0  0  0  0  0  0  0  0  0  0  0
    0.6001   -2.5599    0.0000 C   0  0  2  0  0  0  0  0  0  0  0  0
    0.0280   -1.9654    0.0000 O   0  0  0  0  0  0  0  0  0  0  0  0
   -0.7728   -2.1636    0.0000 C   0  0  2  0  0  0  0  0  0  0  0  0
   -1.3449   -1.5691    0.0000 C   0  0  0  0  0  0  0  0  0  0  0  0
   -1.0016   -2.9562    0.0000 C   0  0  0  0  0  0  0  0  0  0  0  0
   -0.4296   -3.5507    0.0000 C   0  0  1  0  0  0  0  0  0  0  0  0
    0.3713   -3.3525    0.0000 C   0  0  1  0  0  0  0  0  0  0  0  0
    0.9433   -3.9470    0.0000 O   0  0  0  0  0  0  0  0  0  0  0  0
   -0.6584   -4.3433    0.0000 N   0  0  0  0  0  0  0  0  0  0  0  0
   -1.4593   -4.5415    0.0000 C   0  0  0  0  0  0  0  0  0  0  0  0
   -0.0864   -4.9378    0.0000 C   0  0  0  0  0  0  0  0  0  0  0  0
    1.0577   -0.9746    0.0000 C   0  0  1  0  0  0  0  0  0  0  0  0
    0.2568   -1.1728    0.0000 C   0  0  0  0  0  0  0  0  0  0  0  0
    1.2865   -0.1820    0.0000 C   0  0  0  0  0  0  0  0  0  0  0  0
    0.7145    0.4125    0.0000 C   0  0  2  0  0  0  0  0  0  0  0  0
    0.0000    0.0000    0.0000 C   0  0  0  0  0  0  0  0  0  0  0  0
    0.0000    0.8250    0.0000 O   0  0  0  0  0  0  0  0  0  0  0  0
    0.9433    1.2051    0.0000 C   0  0  0  0  0  0  0  0  0  0  0  0
    0.3713    1.7996    0.0000 O   0  0  0  0  0  0  0  0  0  0  0  0
    1.7441    1.4033    0.0000 C   0  0  2  0  0  0  0  0  0  0  0  0
    2.3162    0.8088    0.0000 C   0  0  0  0  0  0  0  0  0  0  0  0
    1.9729    2.1959    0.0000 C   0  0  1  0  0  0  0  0  0  0  0  0
    1.4009    2.7904    0.0000 O   0  0  0  0  0  0  0  0  0  0  0  0
    2.7738    2.3941    0.0000 C   0  0  1  0  0  0  0  0  0  0  0  0
    3.0026    3.1867    0.0000 C   0  0  0  0  0  0  0  0  0  0  0  0
    3.3458    1.7996    0.0000 C   0  0  1  0  0  0  0  0  0  0  0  0
    4.1467    1.9978    0.0000 C   0  0  0  0  0  0  0  0  0  0  0  0
    3.1170    1.0070    0.0000 O   0  0  0  0  0  0  0  0  0  0  0  0
    3.6891    0.4125    0.0000 C   0  0  0  0  0  0  0  0  0  0  0  0
    4.4899    0.6107    0.0000 O   0  0  0  0  0  0  0  0  0  0  0  0
    3.4602   -0.3801    0.0000 C   0  0  2  0  0  0  0  0  0  0  0  0
    4.2724   -0.5248    0.0000 C   0  0  0  0  0  0  0  0  0  0  0  0
    4.6043   -1.5691    0.0000 O   0  0  0  0  0  0  0  0  0  0  0  0
    5.4052   -1.3709    0.0000 C   0  0  1  0  0  0  0  0  0  0  0  0
    5.9772   -1.9654    0.0000 C   0  0  0  0  0  0  0  0  0  0  0  0
    5.6340   -0.5783    0.0000 C   0  0  2  0  0  0  0  0  0  0  0  0
    6.4348   -0.3801    0.0000 O   0  0  0  0  0  0  0  0  0  0  0  0
  1  2  1  0  0  0  0
  3  2  1  6  0  0  0
  3  4  1  0  0  0  0
  4  5  1  0  0  0  0
  5  6  1  1  0  0  0
  7  6  1  6  0  0  0
  7  8  1  0  0  0  0
  8  9  1  6  0  0  0
  8 10  1  0  0  0  0
 10 11  1  1  0  0  0
 12 11  1  1  0  0  0
 12 13  1  0  0  0  0
 13 14  1  0  0  0  0
 14 15  1  1  0  0  0
 14 16  1  0  0  0  0
 16 17  1  0  0  0  0
 17 18  1  0  0  0  0
 12 18  1  0  0  0  0
 18 19  1  6  0  0  0
 17 20  1  1  0  0  0
 20 21  1  0  0  0  0
 20 22  1  0  0  0  0
 10 23  1  0  0  0  0
 23 24  1  1  0  0  0
 23 25  1  0  0  0  0
 25 26  1  0  0  0  0
 26 27  1  0  0  0  0
 27 28  1  0  0  0  0
 26 28  1  6  0  0  0
 26 29  1  0  0  0  0
 29 30  2  0  0  0  0
 29 31  1  0  0  0  0
 31 32  1  1  0  0  0
 31 33  1  0  0  0  0
 33 34  1  1  0  0  0
 33 35  1  0  0  0  0
 35 36  1  1  0  0  0
 35 37  1  0  0  0  0
 37 38  1  1  0  0  0
 37 39  1  0  0  0  0
 39 40  1  0  0  0  0
 40 41  2  0  0  0  0
 40 42  1  0  0  0  0
  7 42  1  0  0  0  0
 42 43  1  6  0  0  0
  5 44  1  0  0  0  0
 44 45  1  0  0  0  0
 45 46  1  6  0  0  0
 45 47  1  0  0  0  0
  3 47  1  0  0  0  0
 47 48  1  1  0  0  0
M  END
>  <ID>
1983

>  <PREFERRED_NAME>
oleandomycin

>  <CAS_RN>
3922-90-5

>  <SYNONYMS>
oleandomycin
oleandomycin phosphate
matromycin
amimycin
landomycin
Oleandomycin A

>  <URL>
http://drugcentral.org/drugcard/1983/view

$$$$
