oliceridine
  -INDIGO-06102311212D

 27 30  0  0  1  0  0  0  0  0999 V2000
    2.4248    5.2574    0.0000 C   0  0  0  0  0  0  0  0  0  0  0  0
    1.9168    4.6073    0.0000 O   0  0  0  0  0  0  0  0  0  0  0  0
    1.0999    4.7222    0.0000 C   0  0  0  0  0  0  0  0  0  0  0  0
    0.5268    4.1287    0.0000 C   0  0  0  0  0  0  0  0  0  0  0  0
   -0.2147    4.4904    0.0000 S   0  0  0  0  0  0  0  0  0  0  0  0
   -0.0999    5.3073    0.0000 C   0  0  0  0  0  0  0  0  0  0  0  0
    0.7126    5.4506    0.0000 C   0  0  0  0  0  0  0  0  0  0  0  0
    0.6700    3.3162    0.0000 C   0  0  0  0  0  0  0  0  0  0  0  0
    1.4453    3.0341    0.0000 N   0  0  0  0  0  0  0  0  0  0  0  0
    1.5885    2.2216    0.0000 C   0  0  0  0  0  0  0  0  0  0  0  0
    2.3638    1.9394    0.0000 C   0  0  0  0  0  0  0  0  0  0  0  0
    2.5070    1.1270    0.0000 C   0  0  1  0  0  0  0  0  0  0  0  0
    2.9195    0.4125    0.0000 C   0  0  0  0  0  0  0  0  0  0  0  0
    2.5070   -0.3020    0.0000 C   0  0  0  0  0  0  0  0  0  0  0  0
    1.6820   -0.3020    0.0000 O   0  0  0  0  0  0  0  0  0  0  0  0
    1.2695    0.4125    0.0000 C   0  0  0  0  0  0  0  0  0  0  0  0
    1.6820    1.1270    0.0000 C   0  0  0  0  0  0  0  0  0  0  0  0
    0.7846   -0.2549    0.0000 C   0  0  0  0  0  0  0  0  0  0  0  0
    0.0000    0.0000    0.0000 C   0  0  0  0  0  0  0  0  0  0  0  0
    0.0000    0.8250    0.0000 C   0  0  0  0  0  0  0  0  0  0  0  0
    0.7846    1.0799    0.0000 C   0  0  0  0  0  0  0  0  0  0  0  0
    3.2823    1.4091    0.0000 C   0  0  0  0  0  0  0  0  0  0  0  0
    3.4256    2.2216    0.0000 C   0  0  0  0  0  0  0  0  0  0  0  0
    4.2008    2.5038    0.0000 C   0  0  0  0  0  0  0  0  0  0  0  0
    4.8328    1.9735    0.0000 C   0  0  0  0  0  0  0  0  0  0  0  0
    4.6895    1.1610    0.0000 C   0  0  0  0  0  0  0  0  0  0  0  0
    3.9143    0.8788    0.0000 N   0  0  0  0  0  0  0  0  0  0  0  0
  1  2  1  0  0  0  0
  2  3  1  0  0  0  0
  3  4  4  0  0  0  0
  4  5  4  0  0  0  0
  5  6  4  0  0  0  0
  6  7  4  0  0  0  0
  3  7  4  0  0  0  0
  4  8  1  0  0  0  0
  8  9  1  0  0  0  0
  9 10  1  0  0  0  0
 10 11  1  0  0  0  0
 12 11  1  1  0  0  0
 12 13  1  0  0  0  0
 13 14  1  0  0  0  0
 14 15  1  0  0  0  0
 15 16  1  0  0  0  0
 16 17  1  0  0  0  0
 12 17  1  0  0  0  0
 16 18  1  0  0  0  0
 18 19  1  0  0  0  0
 19 20  1  0  0  0  0
 20 21  1  0  0  0  0
 16 21  1  0  0  0  0
 12 22  1  6  0  0  0
 22 23  4  0  0  0  0
 23 24  4  0  0  0  0
 24 25  4  0  0  0  0
 25 26  4  0  0  0  0
 26 27  4  0  0  0  0
 22 27  4  0  0  0  0
M  END
>  <ID>
5406

>  <PREFERRED_NAME>
oliceridine

>  <CAS_RN>
1401028-24-7

>  <SYNONYMS>
oliceridine
olinvyk
TRV130
TRV-130
TRV 130A
olinvo

>  <URL>
http://drugcentral.org/drugcard/5406/view

$$$$
