olmesartan medoxomil
  -INDIGO-06102311032D

 41 45  0  0  0  0  0  0  0  0999 V2000
    3.4656   -2.9491    0.0000 C   0  0  0  0  0  0  0  0  0  0  0  0
    2.7512   -2.5366    0.0000 C   0  0  0  0  0  0  0  0  0  0  0  0
    2.0367   -2.9491    0.0000 C   0  0  0  0  0  0  0  0  0  0  0  0
    2.0367   -3.7741    0.0000 C   0  0  0  0  0  0  0  0  0  0  0  0
    2.7041   -4.2590    0.0000 N   0  0  0  0  0  0  0  0  0  0  0  0
    2.4492   -5.0437    0.0000 C   0  0  0  0  0  0  0  0  0  0  0  0
    1.6242   -5.0437    0.0000 C   0  0  0  0  0  0  0  0  0  0  0  0
    1.3693   -4.2590    0.0000 N   0  0  0  0  0  0  0  0  0  0  0  0
    0.5846   -4.0041    0.0000 C   0  0  0  0  0  0  0  0  0  0  0  0
    0.4131   -3.1971    0.0000 C   0  0  0  0  0  0  0  0  0  0  0  0
   -0.3715   -2.9422    0.0000 C   0  0  0  0  0  0  0  0  0  0  0  0
   -0.5430   -2.1352    0.0000 C   0  0  0  0  0  0  0  0  0  0  0  0
    0.0701   -1.5832    0.0000 C   0  0  0  0  0  0  0  0  0  0  0  0
    0.8547   -1.8381    0.0000 C   0  0  0  0  0  0  0  0  0  0  0  0
    1.0262   -2.6451    0.0000 C   0  0  0  0  0  0  0  0  0  0  0  0
   -0.1015   -0.7762    0.0000 C   0  0  0  0  0  0  0  0  0  0  0  0
   -0.8861   -0.5213    0.0000 C   0  0  0  0  0  0  0  0  0  0  0  0
   -1.0576    0.2857    0.0000 C   0  0  0  0  0  0  0  0  0  0  0  0
   -0.4445    0.8377    0.0000 C   0  0  0  0  0  0  0  0  0  0  0  0
    0.3401    0.5828    0.0000 C   0  0  0  0  0  0  0  0  0  0  0  0
    0.5116   -0.2242    0.0000 C   0  0  0  0  0  0  0  0  0  0  0  0
   -1.4992   -1.0733    0.0000 C   0  0  0  0  0  0  0  0  0  0  0  0
   -1.4129   -1.8938    0.0000 N   0  0  0  0  0  0  0  0  0  0  0  0
   -2.1666   -2.2293    0.0000 N   0  0  0  0  0  0  0  0  0  0  0  0
   -2.7186   -1.6162    0.0000 N   0  0  0  0  0  0  0  0  0  0  0  0
   -2.3061   -0.9018    0.0000 N   0  0  0  0  0  0  0  0  0  0  0  0
    1.1393   -5.7111    0.0000 C   0  0  0  0  0  0  0  0  0  0  0  0
    0.3188   -5.6249    0.0000 O   0  0  0  0  0  0  0  0  0  0  0  0
    1.4748   -6.4648    0.0000 O   0  0  0  0  0  0  0  0  0  0  0  0
    0.9899   -7.1322    0.0000 C   0  0  0  0  0  0  0  0  0  0  0  0
    1.3255   -7.8859    0.0000 C   0  0  0  0  0  0  0  0  0  0  0  0
    2.1324   -8.0574    0.0000 C   0  0  0  0  0  0  0  0  0  0  0  0
    2.7455   -7.5054    0.0000 C   0  0  0  0  0  0  0  0  0  0  0  0
    2.2187   -8.8779    0.0000 O   0  0  0  0  0  0  0  0  0  0  0  0
    1.4650   -9.2134    0.0000 C   0  0  0  0  0  0  0  0  0  0  0  0
    1.2935  -10.0204    0.0000 O   0  0  0  0  0  0  0  0  0  0  0  0
    0.9130   -8.6004    0.0000 O   0  0  0  0  0  0  0  0  0  0  0  0
    2.9341   -5.7111    0.0000 C   0  0  0  0  0  0  0  0  0  0  0  0
    3.4191   -6.3785    0.0000 C   0  0  0  0  0  0  0  0  0  0  0  0
    2.2667   -6.1960    0.0000 C   0  0  0  0  0  0  0  0  0  0  0  0
    3.6016   -5.2262    0.0000 O   0  0  0  0  0  0  0  0  0  0  0  0
  1  2  1  0  0  0  0
  2  3  1  0  0  0  0
  3  4  1  0  0  0  0
  4  5  4  0  0  0  0
  5  6  4  0  0  0  0
  6  7  4  0  0  0  0
  7  8  4  0  0  0  0
  4  8  4  0  0  0  0
  8  9  1  0  0  0  0
  9 10  1  0  0  0  0
 10 11  4  0  0  0  0
 11 12  4  0  0  0  0
 12 13  4  0  0  0  0
 13 14  4  0  0  0  0
 14 15  4  0  0  0  0
 10 15  4  0  0  0  0
 13 16  1  0  0  0  0
 16 17  4  0  0  0  0
 17 18  4  0  0  0  0
 18 19  4  0  0  0  0
 19 20  4  0  0  0  0
 20 21  4  0  0  0  0
 16 21  4  0  0  0  0
 17 22  1  0  0  0  0
 22 23  4  0  0  0  0
 23 24  4  0  0  0  0
 24 25  4  0  0  0  0
 25 26  4  0  0  0  0
 22 26  4  0  0  0  0
  7 27  1  0  0  0  0
 27 28  2  0  0  0  0
 27 29  1  0  0  0  0
 29 30  1  0  0  0  0
 30 31  1  0  0  0  0
 31 32  2  0  0  0  0
 32 33  1  0  0  0  0
 32 34  1  0  0  0  0
 34 35  1  0  0  0  0
 35 36  2  0  0  0  0
 35 37  1  0  0  0  0
 31 37  1  0  0  0  0
  6 38  1  0  0  0  0
 38 39  1  0  0  0  0
 38 40  1  0  0  0  0
 38 41  1  0  0  0  0
M  STY  1   1 DAT
M  SLB  1   1   1
M  SAL   1  1  26
M  SDT   1 MRV_IMPLICIT_H
M  SDD   1     0.0000    0.0000    DA    ALL  1       1
M  SED   1 IMPL_H1
M  END
>  <ID>
1985

>  <PREFERRED_NAME>
olmesartan medoxomil

>  <CAS_RN>
144689-63-4

>  <SYNONYMS>
olmesartan medoxomil
olmetec
CS-866
CS866

>  <URL>
http://drugcentral.org/drugcard/1985/view

$$$$
