olmutinib
  -INDIGO-06102311192D

 35 39  0  0  0  0  0  0  0  0999 V2000
    2.7845   -5.0771    0.0000 C   0  0  0  0  0  0  0  0  0  0  0  0
    2.7845   -4.2521    0.0000 N   0  0  0  0  0  0  0  0  0  0  0  0
    2.0701   -3.8396    0.0000 C   0  0  0  0  0  0  0  0  0  0  0  0
    2.0701   -3.0146    0.0000 C   0  0  0  0  0  0  0  0  0  0  0  0
    2.7845   -2.6021    0.0000 N   0  0  0  0  0  0  0  0  0  0  0  0
    3.4990   -3.0146    0.0000 C   0  0  0  0  0  0  0  0  0  0  0  0
    3.4990   -3.8396    0.0000 C   0  0  0  0  0  0  0  0  0  0  0  0
    2.7845   -1.7771    0.0000 C   0  0  0  0  0  0  0  0  0  0  0  0
    2.0701   -1.3646    0.0000 C   0  0  0  0  0  0  0  0  0  0  0  0
    2.0701   -0.5396    0.0000 C   0  0  0  0  0  0  0  0  0  0  0  0
    2.7845   -0.1271    0.0000 C   0  0  0  0  0  0  0  0  0  0  0  0
    2.7845    0.6979    0.0000 N   0  0  0  0  0  0  0  0  0  0  0  0
    2.0701    1.1104    0.0000 C   0  0  0  0  0  0  0  0  0  0  0  0
    1.3556    0.6979    0.0000 N   0  0  0  0  0  0  0  0  0  0  0  0
    0.6411    1.1104    0.0000 C   0  0  0  0  0  0  0  0  0  0  0  0
    0.6411    1.9354    0.0000 C   0  0  0  0  0  0  0  0  0  0  0  0
   -0.1435    2.1904    0.0000 S   0  0  0  0  0  0  0  0  0  0  0  0
   -0.6284    1.5229    0.0000 C   0  0  0  0  0  0  0  0  0  0  0  0
   -0.1435    0.8555    0.0000 C   0  0  0  0  0  0  0  0  0  0  0  0
    1.3556    2.3479    0.0000 C   0  0  0  0  0  0  0  0  0  0  0  0
    1.3556    3.1729    0.0000 O   0  0  0  0  0  0  0  0  0  0  0  0
    0.6411    3.5854    0.0000 C   0  0  0  0  0  0  0  0  0  0  0  0
   -0.0734    3.1729    0.0000 C   0  0  0  0  0  0  0  0  0  0  0  0
   -0.7878    3.5854    0.0000 C   0  0  0  0  0  0  0  0  0  0  0  0
   -0.7878    4.4104    0.0000 C   0  0  0  0  0  0  0  0  0  0  0  0
   -0.0734    4.8229    0.0000 C   0  0  0  0  0  0  0  0  0  0  0  0
   -0.0734    5.6479    0.0000 N   0  0  0  0  0  0  0  0  0  0  0  0
   -0.7878    6.0604    0.0000 C   0  0  0  0  0  0  0  0  0  0  0  0
   -1.5023    5.6479    0.0000 O   0  0  0  0  0  0  0  0  0  0  0  0
   -0.7878    6.8854    0.0000 C   0  0  0  0  0  0  0  0  0  0  0  0
   -1.5023    7.2979    0.0000 C   0  0  0  0  0  0  0  0  0  0  0  0
    0.6411    4.4104    0.0000 C   0  0  0  0  0  0  0  0  0  0  0  0
    2.0701    1.9354    0.0000 N   0  0  0  0  0  0  0  0  0  0  0  0
    3.4990   -0.5396    0.0000 C   0  0  0  0  0  0  0  0  0  0  0  0
    3.4990   -1.3646    0.0000 C   0  0  0  0  0  0  0  0  0  0  0  0
  1  2  1  0  0  0  0
  2  3  1  0  0  0  0
  3  4  1  0  0  0  0
  4  5  1  0  0  0  0
  5  6  1  0  0  0  0
  6  7  1  0  0  0  0
  2  7  1  0  0  0  0
  5  8  1  0  0  0  0
  8  9  4  0  0  0  0
  9 10  4  0  0  0  0
 10 11  4  0  0  0  0
 11 12  1  0  0  0  0
 12 13  1  0  0  0  0
 13 14  4  0  0  0  0
 14 15  4  0  0  0  0
 15 16  4  0  0  0  0
 16 17  4  0  0  0  0
 17 18  4  0  0  0  0
 18 19  4  0  0  0  0
 15 19  4  0  0  0  0
 16 20  4  0  0  0  0
 20 21  1  0  0  0  0
 21 22  1  0  0  0  0
 22 23  4  0  0  0  0
 23 24  4  0  0  0  0
 24 25  4  0  0  0  0
 25 26  4  0  0  0  0
 26 27  1  0  0  0  0
 27 28  1  0  0  0  0
 28 29  2  0  0  0  0
 28 30  1  0  0  0  0
 30 31  2  0  0  0  0
 26 32  4  0  0  0  0
 22 32  4  0  0  0  0
 20 33  4  0  0  0  0
 13 33  4  0  0  0  0
 11 34  4  0  0  0  0
 34 35  4  0  0  0  0
  8 35  4  0  0  0  0
M  END
>  <ID>
5210

>  <PREFERRED_NAME>
olmutinib

>  <CAS_RN>
1353550-13-6

>  <SYNONYMS>
olmutinib
olita
BI 1482694
HM 61713
olmutinib hydrochloride
olmutinib HCl

>  <URL>
http://drugcentral.org/drugcard/5210/view

$$$$
