omarigliptin
  -INDIGO-06102311182D

 27 30  0  0  1  0  0  0  0  0999 V2000
   -0.8654   -0.2549    0.0000 C   0  0  0  0  0  0  0  0  0  0  0  0
   -0.0404   -0.2549    0.0000 S   0  0  0  0  0  0  0  0  0  0  0  0
   -0.0404   -1.0799    0.0000 O   0  0  0  0  0  0  0  0  0  0  0  0
   -0.0404    0.5701    0.0000 O   0  0  0  0  0  0  0  0  0  0  0  0
    0.7846   -0.2549    0.0000 N   0  0  0  0  0  0  0  0  0  0  0  0
    1.2695    0.4125    0.0000 C   0  0  0  0  0  0  0  0  0  0  0  0
    2.0542    0.1576    0.0000 C   0  0  0  0  0  0  0  0  0  0  0  0
    2.8388    0.4125    0.0000 C   0  0  0  0  0  0  0  0  0  0  0  0
    3.3237   -0.2549    0.0000 N   0  0  0  0  0  0  0  0  0  0  0  0
    2.8388   -0.9224    0.0000 C   0  0  0  0  0  0  0  0  0  0  0  0
    2.0542   -0.6674    0.0000 C   0  0  0  0  0  0  0  0  0  0  0  0
    1.2695   -0.9224    0.0000 N   0  0  0  0  0  0  0  0  0  0  0  0
    4.1487   -0.2549    0.0000 C   0  0  1  0  0  0  0  0  0  0  0  0
    4.5612    0.4595    0.0000 C   0  0  0  0  0  0  0  0  0  0  0  0
    5.3862    0.4595    0.0000 O   0  0  0  0  0  0  0  0  0  0  0  0
    5.7987   -0.2549    0.0000 C   0  0  1  0  0  0  0  0  0  0  0  0
    5.3862   -0.9694    0.0000 C   0  0  1  0  0  0  0  0  0  0  0  0
    5.7987   -1.6839    0.0000 N   0  0  0  0  0  0  0  0  0  0  0  0
    4.5612   -0.9694    0.0000 C   0  0  0  0  0  0  0  0  0  0  0  0
    6.6237   -0.2549    0.0000 C   0  0  0  0  0  0  0  0  0  0  0  0
    7.0362    0.4595    0.0000 C   0  0  0  0  0  0  0  0  0  0  0  0
    6.6237    1.1740    0.0000 F   0  0  0  0  0  0  0  0  0  0  0  0
    7.8612    0.4595    0.0000 C   0  0  0  0  0  0  0  0  0  0  0  0
    8.2737   -0.2549    0.0000 C   0  0  0  0  0  0  0  0  0  0  0  0
    7.8612   -0.9694    0.0000 C   0  0  0  0  0  0  0  0  0  0  0  0
    8.2737   -1.6839    0.0000 F   0  0  0  0  0  0  0  0  0  0  0  0
    7.0362   -0.9694    0.0000 C   0  0  0  0  0  0  0  0  0  0  0  0
  1  2  1  0  0  0  0
  2  3  2  0  0  0  0
  2  4  2  0  0  0  0
  2  5  1  0  0  0  0
  5  6  4  0  0  0  0
  6  7  4  0  0  0  0
  7  8  1  0  0  0  0
  8  9  1  0  0  0  0
  9 10  1  0  0  0  0
 10 11  1  0  0  0  0
  7 11  4  0  0  0  0
 11 12  4  0  0  0  0
  5 12  4  0  0  0  0
 13  9  1  1  0  0  0
 13 14  1  0  0  0  0
 14 15  1  0  0  0  0
 15 16  1  0  0  0  0
 16 17  1  0  0  0  0
 17 18  1  1  0  0  0
 17 19  1  0  0  0  0
 13 19  1  0  0  0  0
 16 20  1  6  0  0  0
 20 21  4  0  0  0  0
 21 22  1  0  0  0  0
 21 23  4  0  0  0  0
 23 24  4  0  0  0  0
 24 25  4  0  0  0  0
 25 26  1  0  0  0  0
 25 27  4  0  0  0  0
 20 27  4  0  0  0  0
M  END
>  <ID>
5054

>  <PREFERRED_NAME>
omarigliptin

>  <CAS_RN>
1226781-44-7

>  <SYNONYMS>
omarigliptin
marizev
Mk-3102
MK3102

>  <URL>
http://drugcentral.org/drugcard/5054/view

$$$$
