ombitasvir
  -INDIGO-06102311172D

 65 70  0  0  1  0  0  0  0  0999 V2000
    6.9280   -1.9115    0.0000 C   0  0  0  0  0  0  0  0  0  0  0  0
    6.2135   -2.3240    0.0000 O   0  0  0  0  0  0  0  0  0  0  0  0
    6.2135   -3.1490    0.0000 C   0  0  0  0  0  0  0  0  0  0  0  0
    6.9280   -3.5615    0.0000 O   0  0  0  0  0  0  0  0  0  0  0  0
    5.4990   -3.5615    0.0000 N   0  0  0  0  0  0  0  0  0  0  0  0
    5.4990   -4.3865    0.0000 C   0  0  1  0  0  0  0  0  0  0  0  0
    6.2135   -4.7990    0.0000 C   0  0  0  0  0  0  0  0  0  0  0  0
    6.2135   -5.6240    0.0000 C   0  0  0  0  0  0  0  0  0  0  0  0
    6.9280   -4.3865    0.0000 C   0  0  0  0  0  0  0  0  0  0  0  0
    4.7846   -4.7990    0.0000 C   0  0  0  0  0  0  0  0  0  0  0  0
    4.0701   -4.3865    0.0000 O   0  0  0  0  0  0  0  0  0  0  0  0
    4.7846   -5.6240    0.0000 N   0  0  0  0  0  0  0  0  0  0  0  0
    5.4520   -6.1089    0.0000 C   0  0  0  0  0  0  0  0  0  0  0  0
    5.1971   -6.8935    0.0000 C   0  0  0  0  0  0  0  0  0  0  0  0
    4.3721   -6.8935    0.0000 C   0  0  0  0  0  0  0  0  0  0  0  0
    4.1171   -6.1089    0.0000 C   0  0  1  0  0  0  0  0  0  0  0  0
    3.3325   -5.8540    0.0000 C   0  0  0  0  0  0  0  0  0  0  0  0
    3.1610   -5.0470    0.0000 O   0  0  0  0  0  0  0  0  0  0  0  0
    2.7194   -6.4060    0.0000 N   0  0  0  0  0  0  0  0  0  0  0  0
    1.9348   -6.1511    0.0000 C   0  0  0  0  0  0  0  0  0  0  0  0
    1.3217   -6.7031    0.0000 C   0  0  0  0  0  0  0  0  0  0  0  0
    0.5371   -6.4481    0.0000 C   0  0  0  0  0  0  0  0  0  0  0  0
    0.3655   -5.6412    0.0000 C   0  0  0  0  0  0  0  0  0  0  0  0
    0.9786   -5.0891    0.0000 C   0  0  0  0  0  0  0  0  0  0  0  0
    1.7633   -5.3441    0.0000 C   0  0  0  0  0  0  0  0  0  0  0  0
   -0.4191   -5.3862    0.0000 C   0  0  2  0  0  0  0  0  0  0  0  0
   -1.0865   -5.8712    0.0000 C   0  0  0  0  0  0  0  0  0  0  0  0
   -1.7540   -5.3862    0.0000 C   0  0  0  0  0  0  0  0  0  0  0  0
   -1.4990   -4.6016    0.0000 C   0  0  2  0  0  0  0  0  0  0  0  0
   -0.6740   -4.6016    0.0000 N   0  0  0  0  0  0  0  0  0  0  0  0
   -0.1891   -3.9342    0.0000 C   0  0  0  0  0  0  0  0  0  0  0  0
   -0.5246   -3.1805    0.0000 C   0  0  0  0  0  0  0  0  0  0  0  0
   -0.0397   -2.5131    0.0000 C   0  0  0  0  0  0  0  0  0  0  0  0
    0.7808   -2.5993    0.0000 C   0  0  0  0  0  0  0  0  0  0  0  0
    1.1163   -3.3530    0.0000 C   0  0  0  0  0  0  0  0  0  0  0  0
    0.6314   -4.0204    0.0000 C   0  0  0  0  0  0  0  0  0  0  0  0
    1.2657   -1.9319    0.0000 C   0  0  0  0  0  0  0  0  0  0  0  0
    1.7506   -1.2644    0.0000 C   0  0  0  0  0  0  0  0  0  0  0  0
    1.9331   -2.4168    0.0000 C   0  0  0  0  0  0  0  0  0  0  0  0
    0.5982   -1.4469    0.0000 C   0  0  0  0  0  0  0  0  0  0  0  0
   -1.9839   -3.9342    0.0000 C   0  0  0  0  0  0  0  0  0  0  0  0
   -2.8044   -4.0204    0.0000 C   0  0  0  0  0  0  0  0  0  0  0  0
   -3.2893   -3.3530    0.0000 C   0  0  0  0  0  0  0  0  0  0  0  0
   -2.9538   -2.5993    0.0000 C   0  0  0  0  0  0  0  0  0  0  0  0
   -3.4387   -1.9319    0.0000 N   0  0  0  0  0  0  0  0  0  0  0  0
   -4.2592   -2.0181    0.0000 C   0  0  0  0  0  0  0  0  0  0  0  0
   -4.7441   -1.3507    0.0000 O   0  0  0  0  0  0  0  0  0  0  0  0
   -4.5947   -2.7718    0.0000 C   0  0  2  0  0  0  0  0  0  0  0  0
   -4.1822   -3.4862    0.0000 C   0  0  0  0  0  0  0  0  0  0  0  0
   -4.7343   -4.0993    0.0000 C   0  0  0  0  0  0  0  0  0  0  0  0
   -5.4880   -3.7638    0.0000 C   0  0  0  0  0  0  0  0  0  0  0  0
   -5.4017   -2.9433    0.0000 N   0  0  0  0  0  0  0  0  0  0  0  0
   -6.0148   -2.3913    0.0000 C   0  0  0  0  0  0  0  0  0  0  0  0
   -5.8433   -1.5843    0.0000 O   0  0  0  0  0  0  0  0  0  0  0  0
   -6.7994   -2.6462    0.0000 C   0  0  1  0  0  0  0  0  0  0  0  0
   -7.4125   -2.0942    0.0000 N   0  0  0  0  0  0  0  0  0  0  0  0
   -8.1971   -2.3491    0.0000 C   0  0  0  0  0  0  0  0  0  0  0  0
   -8.3687   -3.1561    0.0000 O   0  0  0  0  0  0  0  0  0  0  0  0
   -8.8102   -1.7971    0.0000 O   0  0  0  0  0  0  0  0  0  0  0  0
   -9.5949   -2.0520    0.0000 C   0  0  0  0  0  0  0  0  0  0  0  0
   -6.9710   -3.4532    0.0000 C   0  0  0  0  0  0  0  0  0  0  0  0
   -6.3579   -4.0052    0.0000 C   0  0  0  0  0  0  0  0  0  0  0  0
   -7.7556   -3.7081    0.0000 C   0  0  0  0  0  0  0  0  0  0  0  0
   -2.1333   -2.5131    0.0000 C   0  0  0  0  0  0  0  0  0  0  0  0
   -1.6484   -3.1805    0.0000 C   0  0  0  0  0  0  0  0  0  0  0  0
  1  2  1  0  0  0  0
  2  3  1  0  0  0  0
  3  4  2  0  0  0  0
  3  5  1  0  0  0  0
  6  5  1  1  0  0  0
  6  7  1  0  0  0  0
  7  8  1  0  0  0  0
  7  9  1  0  0  0  0
  6 10  1  0  0  0  0
 10 11  2  0  0  0  0
 10 12  1  0  0  0  0
 12 13  1  0  0  0  0
 13 14  1  0  0  0  0
 14 15  1  0  0  0  0
 15 16  1  0  0  0  0
 12 16  1  0  0  0  0
 16 17  1  1  0  0  0
 17 18  2  0  0  0  0
 17 19  1  0  0  0  0
 19 20  1  0  0  0  0
 20 21  4  0  0  0  0
 21 22  4  0  0  0  0
 22 23  4  0  0  0  0
 23 24  4  0  0  0  0
 24 25  4  0  0  0  0
 20 25  4  0  0  0  0
 26 23  1  6  0  0  0
 26 27  1  0  0  0  0
 27 28  1  0  0  0  0
 28 29  1  0  0  0  0
 29 30  1  0  0  0  0
 26 30  1  0  0  0  0
 30 31  1  0  0  0  0
 31 32  4  0  0  0  0
 32 33  4  0  0  0  0
 33 34  4  0  0  0  0
 34 35  4  0  0  0  0
 35 36  4  0  0  0  0
 31 36  4  0  0  0  0
 34 37  1  0  0  0  0
 37 38  1  0  0  0  0
 37 39  1  0  0  0  0
 37 40  1  0  0  0  0
 29 41  1  1  0  0  0
 41 42  4  0  0  0  0
 42 43  4  0  0  0  0
 43 44  4  0  0  0  0
 44 45  1  0  0  0  0
 45 46  1  0  0  0  0
 46 47  2  0  0  0  0
 48 46  1  6  0  0  0
 48 49  1  0  0  0  0
 49 50  1  0  0  0  0
 50 51  1  0  0  0  0
 51 52  1  0  0  0  0
 48 52  1  0  0  0  0
 52 53  1  0  0  0  0
 53 54  2  0  0  0  0
 53 55  1  0  0  0  0
 55 56  1  6  0  0  0
 56 57  1  0  0  0  0
 57 58  2  0  0  0  0
 57 59  1  0  0  0  0
 59 60  1  0  0  0  0
 55 61  1  0  0  0  0
 61 62  1  0  0  0  0
 61 63  1  0  0  0  0
 44 64  4  0  0  0  0
 64 65  4  0  0  0  0
 41 65  4  0  0  0  0
M  END
>  <ID>
4912

>  <PREFERRED_NAME>
ombitasvir

>  <CAS_RN>
1258226-87-7

>  <SYNONYMS>
ombitasvir
ombitasvir hydrate
ombitasvir heminonahydrate
ABT-267

>  <URL>
http://drugcentral.org/drugcard/4912/view

$$$$
