oritavancin
  -INDIGO-06102311142D

125137  0  0  1  0  0  0  0  0999 V2000
   -0.0874   -2.3681    0.0000 C   0  0  0  0  0  0  0  0  0  0  0  0
    0.3867   -3.0433    0.0000 N   0  0  0  0  0  0  0  0  0  0  0  0
    1.2084   -2.9704    0.0000 C   0  0  2  0  0  0  0  0  0  0  0  0
    1.6825   -3.6456    0.0000 C   0  0  0  0  0  0  0  0  0  0  0  0
    1.3347   -4.3937    0.0000 C   0  0  0  0  0  0  0  0  0  0  0  0
    1.8088   -5.0689    0.0000 C   0  0  0  0  0  0  0  0  0  0  0  0
    0.5130   -4.4666    0.0000 C   0  0  0  0  0  0  0  0  0  0  0  0
    1.5562   -2.2222    0.0000 C   0  0  0  0  0  0  0  0  0  0  0  0
    2.3780   -2.1493    0.0000 O   0  0  0  0  0  0  0  0  0  0  0  0
    1.0822   -1.5470    0.0000 N   0  0  0  0  0  0  0  0  0  0  0  0
    1.4299   -0.7989    0.0000 C   0  0  2  0  0  0  0  0  0  0  0  0
    0.7649   -0.2729    0.0000 C   0  0  2  0  0  0  0  0  0  0  0  0
    0.0629   -0.7062    0.0000 O   0  0  0  0  0  0  0  0  0  0  0  0
    0.5907    0.5676    0.0000 C   0  0  0  0  0  0  0  0  0  0  0  0
    1.3972    0.7922    0.0000 C   0  0  0  0  0  0  0  0  0  0  0  0
    1.6330    1.5811    0.0000 C   0  0  0  0  0  0  0  0  0  0  0  0
    2.4372    1.7648    0.0000 Cl  0  0  0  0  0  0  0  0  0  0  0  0
    1.0681    2.2004    0.0000 C   0  0  0  0  0  0  0  0  0  0  0  0
    1.5884    2.8765    0.0000 O   0  0  0  0  0  0  0  0  0  0  0  0
    2.3763    3.1956    0.0000 C   0  0  0  0  0  0  0  0  0  0  0  0
    2.9338    2.5706    0.0000 C   0  0  0  0  0  0  0  0  0  0  0  0
    3.7624    2.6658    0.0000 C   0  0  0  0  0  0  0  0  0  0  0  0
    4.0344    3.4578    0.0000 C   0  0  0  0  0  0  0  0  0  0  0  0
    3.5258    4.1303    0.0000 C   0  0  0  0  0  0  0  0  0  0  0  0
    3.9774    4.8612    0.0000 O   0  0  0  0  0  0  0  0  0  0  0  0
    4.7447    5.2418    0.0000 C   0  0  0  0  0  0  0  0  0  0  0  0
    5.2147    5.9395    0.0000 C   0  0  0  0  0  0  0  0  0  0  0  0
    6.0482    5.9057    0.0000 C   0  0  0  0  0  0  0  0  0  0  0  0
    6.4430    5.1620    0.0000 C   0  0  0  0  0  0  0  0  0  0  0  0
    5.9742    4.4708    0.0000 C   0  0  0  0  0  0  0  0  0  0  0  0
    5.1504    4.5121    0.0000 C   0  0  0  0  0  0  0  0  0  0  0  0
    4.7144    3.8117    0.0000 Cl  0  0  0  0  0  0  0  0  0  0  0  0
    7.1952    4.7610    0.0000 C   0  0  1  0  0  0  0  0  0  0  0  0
    7.7293    5.3897    0.0000 O   0  0  0  0  0  0  0  0  0  0  0  0
    7.4519    6.1667    0.0000 C   0  0  1  0  0  0  0  0  0  0  0  0
    6.6403    6.3149    0.0000 C   0  0  0  0  0  0  0  0  0  0  0  0
    6.3629    7.0918    0.0000 C   0  0  2  0  0  0  0  0  0  0  0  0
    5.6459    6.6837    0.0000 C   0  0  0  0  0  0  0  0  0  0  0  0
    5.8364    7.7270    0.0000 N   0  0  0  0  0  0  0  0  0  0  0  0
    6.8970    7.7206    0.0000 C   0  0  1  0  0  0  0  0  0  0  0  0
    6.6196    8.4975    0.0000 O   0  0  0  0  0  0  0  0  0  0  0  0
    7.7086    7.5724    0.0000 C   0  0  2  0  0  0  0  0  0  0  0  0
    8.2427    8.2011    0.0000 C   0  0  0  0  0  0  0  0  0  0  0  0
    7.9860    6.7954    0.0000 O   0  0  0  0  0  0  0  0  0  0  0  0
    7.7095    4.0875    0.0000 C   0  0  2  0  0  0  0  0  0  0  0  0
    7.3144    3.3410    0.0000 N   0  0  0  0  0  0  0  0  0  0  0  0
    6.8775    2.6251    0.0000 C   0  0  0  0  0  0  0  0  0  0  0  0
    6.1104    2.9288    0.0000 O   0  0  0  0  0  0  0  0  0  0  0  0
    6.7044    1.7962    0.0000 C   0  0  2  0  0  0  0  0  0  0  0  0
    5.8679    1.6792    0.0000 N   0  0  0  0  0  0  0  0  0  0  0  0
    5.0739    1.9461    0.0000 C   0  0  0  0  0  0  0  0  0  0  0  0
    5.2081    2.7602    0.0000 O   0  0  0  0  0  0  0  0  0  0  0  0
    4.2303    1.9480    0.0000 C   0  0  2  0  0  0  0  0  0  0  0  0
    4.1211    1.1069    0.0000 N   0  0  0  0  0  0  0  0  0  0  0  0
    4.1994    0.2731    0.0000 C   0  0  0  0  0  0  0  0  0  0  0  0
    5.0082    0.1102    0.0000 O   0  0  0  0  0  0  0  0  0  0  0  0
    3.8080   -0.4583    0.0000 C   0  0  2  0  0  0  0  0  0  0  0  0
    4.3970   -1.0360    0.0000 C   0  0  0  0  0  0  0  0  0  0  0  0
    4.1913   -1.8349    0.0000 C   0  0  0  0  0  0  0  0  0  0  0  0
    4.7803   -2.4126    0.0000 N   0  0  0  0  0  0  0  0  0  0  0  0
    3.3965   -2.0562    0.0000 O   0  0  0  0  0  0  0  0  0  0  0  0
    3.0835   -0.8643    0.0000 N   0  0  0  0  0  0  0  0  0  0  0  0
    2.2540   -0.9668    0.0000 C   0  0  0  0  0  0  0  0  0  0  0  0
    2.2218   -1.7911    0.0000 O   0  0  0  0  0  0  0  0  0  0  0  0
    7.2847    1.1644    0.0000 C   0  0  0  0  0  0  0  0  0  0  0  0
    7.1413    0.3382    0.0000 C   0  0  0  0  0  0  0  0  0  0  0  0
    7.7620   -0.2144    0.0000 C   0  0  0  0  0  0  0  0  0  0  0  0
    8.5499    0.0577    0.0000 C   0  0  0  0  0  0  0  0  0  0  0  0
    9.1646   -0.4926    0.0000 O   0  0  0  0  0  0  0  0  0  0  0  0
    8.7350    0.8769    0.0000 C   0  0  0  0  0  0  0  0  0  0  0  0
    8.0866    1.4095    0.0000 C   0  0  0  0  0  0  0  0  0  0  0  0
    9.4928    1.2642    0.0000 C   0  0  0  0  0  0  0  0  0  0  0  0
   10.0084    0.6201    0.0000 C   0  0  0  0  0  0  0  0  0  0  0  0
    9.7084   -0.1484    0.0000 O   0  0  0  0  0  0  0  0  0  0  0  0
   10.8239    0.7445    0.0000 C   0  0  0  0  0  0  0  0  0  0  0  0
   11.1239    1.5131    0.0000 C   0  0  0  0  0  0  0  0  0  0  0  0
   11.9395    1.6375    0.0000 O   0  0  0  0  0  0  0  0  0  0  0  0
   10.6084    2.1571    0.0000 C   0  0  0  0  0  0  0  0  0  0  0  0
    9.7928    2.0327    0.0000 C   0  0  0  0  0  0  0  0  0  0  0  0
    9.5171    2.8316    0.0000 C   0  0  2  0  0  0  0  0  0  0  0  0
    9.2436    3.6221    0.0000 N   0  0  0  0  0  0  0  0  0  0  0  0
    8.5541    4.1005    0.0000 C   0  0  0  0  0  0  0  0  0  0  0  0
    8.7944    4.8897    0.0000 O   0  0  0  0  0  0  0  0  0  0  0  0
   10.2968    3.1010    0.0000 C   0  0  0  0  0  0  0  0  0  0  0  0
   10.4533    3.9111    0.0000 O   0  0  0  0  0  0  0  0  0  0  0  0
   10.9201    2.5605    0.0000 O   0  0  0  0  0  0  0  0  0  0  0  0
    2.6978    3.9716    0.0000 C   0  0  0  0  0  0  0  0  0  0  0  0
    2.1766    4.6111    0.0000 O   0  0  0  0  0  0  0  0  0  0  0  0
    1.3622    4.4796    0.0000 C   0  0  2  0  0  0  0  0  0  0  0  0
    1.0689    3.7084    0.0000 O   0  0  0  0  0  0  0  0  0  0  0  0
    0.2545    3.5769    0.0000 C   0  0  2  0  0  0  0  0  0  0  0  0
   -0.0388    2.8058    0.0000 C   0  0  0  0  0  0  0  0  0  0  0  0
   -0.8533    2.6742    0.0000 O   0  0  0  0  0  0  0  0  0  0  0  0
   -0.2667    4.2164    0.0000 C   0  0  1  0  0  0  0  0  0  0  0  0
   -1.0811    4.0849    0.0000 O   0  0  0  0  0  0  0  0  0  0  0  0
    0.0266    4.9876    0.0000 C   0  0  2  0  0  0  0  0  0  0  0  0
   -0.4946    5.6271    0.0000 O   0  0  0  0  0  0  0  0  0  0  0  0
    0.8410    5.1191    0.0000 C   0  0  1  0  0  0  0  0  0  0  0  0
    1.1343    5.8902    0.0000 O   0  0  0  0  0  0  0  0  0  0  0  0
    0.6132    6.5298    0.0000 C   0  0  1  0  0  0  0  0  0  0  0  0
    0.9065    7.3009    0.0000 C   0  0  0  0  0  0  0  0  0  0  0  0
    0.3853    7.9404    0.0000 C   0  0  2  0  0  0  0  0  0  0  0  0
    1.1057    8.3426    0.0000 C   0  0  0  0  0  0  0  0  0  0  0  0
    0.1144    8.7197    0.0000 N   0  0  0  0  0  0  0  0  0  0  0  0
    0.6537    9.3439    0.0000 C   0  0  0  0  0  0  0  0  0  0  0  0
    0.3827   10.1232    0.0000 C   0  0  0  0  0  0  0  0  0  0  0  0
   -0.4276   10.2781    0.0000 C   0  0  0  0  0  0  0  0  0  0  0  0
   -0.6986   11.0573    0.0000 C   0  0  0  0  0  0  0  0  0  0  0  0
   -0.1592   11.6816    0.0000 C   0  0  0  0  0  0  0  0  0  0  0  0
    0.6511   11.5267    0.0000 C   0  0  0  0  0  0  0  0  0  0  0  0
    0.9221   10.7475    0.0000 C   0  0  0  0  0  0  0  0  0  0  0  0
   -0.4302   12.4608    0.0000 C   0  0  0  0  0  0  0  0  0  0  0  0
   -1.2405   12.6158    0.0000 C   0  0  0  0  0  0  0  0  0  0  0  0
   -1.5115   13.3950    0.0000 C   0  0  0  0  0  0  0  0  0  0  0  0
   -0.9722   14.0193    0.0000 C   0  0  0  0  0  0  0  0  0  0  0  0
   -1.2432   14.7985    0.0000 Cl  0  0  0  0  0  0  0  0  0  0  0  0
   -0.1619   13.8644    0.0000 C   0  0  0  0  0  0  0  0  0  0  0  0
    0.1091   13.0851    0.0000 C   0  0  0  0  0  0  0  0  0  0  0  0
   -0.4291    7.8089    0.0000 C   0  0  1  0  0  0  0  0  0  0  0  0
   -0.9503    8.4484    0.0000 O   0  0  0  0  0  0  0  0  0  0  0  0
   -0.7224    7.0378    0.0000 C   0  0  2  0  0  0  0  0  0  0  0  0
   -1.5368    6.9062    0.0000 C   0  0  0  0  0  0  0  0  0  0  0  0
   -0.2013    6.3982    0.0000 O   0  0  0  0  0  0  0  0  0  0  0  0
    0.2475    1.9969    0.0000 C   0  0  0  0  0  0  0  0  0  0  0  0
    0.0238    1.1935    0.0000 C   0  0  0  0  0  0  0  0  0  0  0  0
  1  2  1  0  0  0  0
  3  2  1  1  0  0  0
  3  4  1  0  0  0  0
  4  5  1  0  0  0  0
  5  6  1  0  0  0  0
  5  7  1  0  0  0  0
  3  8  1  0  0  0  0
  8  9  2  0  0  0  0
  8 10  1  0  0  0  0
 11 10  1  6  0  0  0
 11 12  1  0  0  0  0
 12 13  1  6  0  0  0
 12 14  1  0  0  0  0
 14 15  4  0  0  0  0
 15 16  4  0  0  0  0
 16 17  1  0  0  0  0
 16 18  4  0  0  0  0
 18 19  1  0  0  0  0
 19 20  1  0  0  0  0
 20 21  4  0  0  0  0
 21 22  4  0  0  0  0
 22 23  4  0  0  0  0
 23 24  4  0  0  0  0
 24 25  1  0  0  0  0
 25 26  1  0  0  0  0
 26 27  4  0  0  0  0
 27 28  4  0  0  0  0
 28 29  4  0  0  0  0
 29 30  4  0  0  0  0
 30 31  4  0  0  0  0
 26 31  4  0  0  0  0
 31 32  1  0  0  0  0
 29 33  1  0  0  0  0
 33 34  1  1  0  0  0
 35 34  1  1  0  0  0
 35 36  1  0  0  0  0
 36 37  1  0  0  0  0
 37 38  1  1  0  0  0
 37 39  1  6  0  0  0
 37 40  1  0  0  0  0
 40 41  1  1  0  0  0
 40 42  1  0  0  0  0
 42 43  1  6  0  0  0
 42 44  1  0  0  0  0
 35 44  1  0  0  0  0
 33 45  1  0  0  0  0
 45 46  1  1  0  0  0
 46 47  1  0  0  0  0
 47 48  2  0  0  0  0
 47 49  1  0  0  0  0
 49 50  1  0  0  0  0
 50 51  1  0  0  0  0
 51 52  2  0  0  0  0
 51 53  1  0  0  0  0
 53 22  1  6  0  0  0
 53 54  1  0  0  0  0
 54 55  1  0  0  0  0
 55 56  2  0  0  0  0
 55 57  1  0  0  0  0
 57 58  1  6  0  0  0
 58 59  1  0  0  0  0
 59 60  1  0  0  0  0
 59 61  2  0  0  0  0
 57 62  1  0  0  0  0
 62 63  1  0  0  0  0
 11 63  1  0  0  0  0
 63 64  2  0  0  0  0
 49 65  1  1  0  0  0
 65 66  4  0  0  0  0
 66 67  4  0  0  0  0
 67 68  4  0  0  0  0
 68 69  1  0  0  0  0
 68 70  4  0  0  0  0
 70 71  4  0  0  0  0
 65 71  4  0  0  0  0
 70 72  1  0  0  0  0
 72 73  4  0  0  0  0
 73 74  1  0  0  0  0
 73 75  4  0  0  0  0
 75 76  4  0  0  0  0
 76 77  1  0  0  0  0
 76 78  4  0  0  0  0
 78 79  4  0  0  0  0
 72 79  4  0  0  0  0
 79 80  1  0  0  0  0
 80 81  1  0  0  0  0
 81 82  1  0  0  0  0
 45 82  1  0  0  0  0
 82 83  2  0  0  0  0
 80 84  1  6  0  0  0
 84 85  1  0  0  0  0
 84 86  2  0  0  0  0
 24 87  4  0  0  0  0
 20 87  4  0  0  0  0
 87 88  1  0  0  0  0
 89 88  1  6  0  0  0
 89 90  1  0  0  0  0
 90 91  1  0  0  0  0
 91 92  1  6  0  0  0
 92 93  1  0  0  0  0
 91 94  1  0  0  0  0
 94 95  1  1  0  0  0
 94 96  1  0  0  0  0
 96 97  1  6  0  0  0
 96 98  1  0  0  0  0
 89 98  1  0  0  0  0
 98 99  1  1  0  0  0
100 99  1  6  0  0  0
100101  1  0  0  0  0
101102  1  0  0  0  0
102103  1  6  0  0  0
102104  1  1  0  0  0
104105  1  0  0  0  0
105106  1  0  0  0  0
106107  4  0  0  0  0
107108  4  0  0  0  0
108109  4  0  0  0  0
109110  4  0  0  0  0
110111  4  0  0  0  0
106111  4  0  0  0  0
109112  1  0  0  0  0
112113  4  0  0  0  0
113114  4  0  0  0  0
114115  4  0  0  0  0
115116  1  0  0  0  0
115117  4  0  0  0  0
117118  4  0  0  0  0
112118  4  0  0  0  0
102119  1  0  0  0  0
119120  1  6  0  0  0
119121  1  0  0  0  0
121122  1  1  0  0  0
121123  1  0  0  0  0
100123  1  0  0  0  0
 18124  4  0  0  0  0
124125  4  0  0  0  0
 14125  4  0  0  0  0
M  END
>  <ID>
4678

>  <PREFERRED_NAME>
oritavancin

>  <CAS_RN>
171099-57-3

>  <SYNONYMS>
oritavancin
oritavancin diphosphate
orbactiv
LY333328

>  <URL>
http://drugcentral.org/drugcard/4678/view

$$$$
