osilodrostat
  -INDIGO-06102311212D

 17 19  0  0  1  0  0  0  0  0999 V2000
   -0.3444   -1.2654    0.0000 F   0  0  0  0  0  0  0  0  0  0  0  0
    0.2076   -1.8785    0.0000 C   0  0  0  0  0  0  0  0  0  0  0  0
    1.0146   -1.7070    0.0000 C   0  0  0  0  0  0  0  0  0  0  0  0
    1.5666   -2.3201    0.0000 C   0  0  0  0  0  0  0  0  0  0  0  0
    1.3117   -3.1047    0.0000 C   0  0  0  0  0  0  0  0  0  0  0  0
    0.5047   -3.2762    0.0000 C   0  0  0  0  0  0  0  0  0  0  0  0
   -0.0473   -2.6631    0.0000 C   0  0  0  0  0  0  0  0  0  0  0  0
    0.2498   -4.0609    0.0000 C   0  0  0  0  0  0  0  0  0  0  0  0
   -0.0052   -4.8455    0.0000 N   0  0  0  0  0  0  0  0  0  0  0  0
    1.2695   -0.9224    0.0000 C   0  0  1  0  0  0  0  0  0  0  0  0
    0.7846   -0.2549    0.0000 C   0  0  0  0  0  0  0  0  0  0  0  0
    1.2695    0.4125    0.0000 C   0  0  0  0  0  0  0  0  0  0  0  0
    2.0542    0.1576    0.0000 C   0  0  0  0  0  0  0  0  0  0  0  0
    2.8388    0.4125    0.0000 C   0  0  0  0  0  0  0  0  0  0  0  0
    3.3237   -0.2549    0.0000 N   0  0  0  0  0  0  0  0  0  0  0  0
    2.8388   -0.9224    0.0000 C   0  0  0  0  0  0  0  0  0  0  0  0
    2.0542   -0.6674    0.0000 N   0  0  0  0  0  0  0  0  0  0  0  0
  1  2  1  0  0  0  0
  2  3  4  0  0  0  0
  3  4  4  0  0  0  0
  4  5  4  0  0  0  0
  5  6  4  0  0  0  0
  6  7  4  0  0  0  0
  2  7  4  0  0  0  0
  6  8  1  0  0  0  0
  8  9  3  0  0  0  0
 10  3  1  1  0  0  0
 10 11  1  0  0  0  0
 11 12  1  0  0  0  0
 12 13  1  0  0  0  0
 13 14  4  0  0  0  0
 14 15  4  0  0  0  0
 15 16  4  0  0  0  0
 16 17  4  0  0  0  0
 10 17  1  0  0  0  0
 13 17  4  0  0  0  0
M  END
>  <ID>
5384

>  <PREFERRED_NAME>
osilodrostat

>  <CAS_RN>
928134-65-0

>  <SYNONYMS>
osilodrostat
osilodrostat phosphate
LCI699-NX
LCI-699
isturisa

>  <URL>
http://drugcentral.org/drugcard/5384/view

$$$$
