oxamarin
  -INDIGO-06102311092D

 28 29  0  0  0  0  0  0  0  0999 V2000
    5.1414   -0.3316    0.0000 C   0  0  0  0  0  0  0  0  0  0  0  0
    4.7289   -1.0461    0.0000 C   0  0  0  0  0  0  0  0  0  0  0  0
    3.9039   -1.0461    0.0000 N   0  0  0  0  0  0  0  0  0  0  0  0
    3.4914   -0.3316    0.0000 C   0  0  0  0  0  0  0  0  0  0  0  0
    3.9039    0.3829    0.0000 C   0  0  0  0  0  0  0  0  0  0  0  0
    3.4914   -1.7605    0.0000 C   0  0  0  0  0  0  0  0  0  0  0  0
    2.6664   -1.7605    0.0000 C   0  0  0  0  0  0  0  0  0  0  0  0
    2.2539   -1.0461    0.0000 O   0  0  0  0  0  0  0  0  0  0  0  0
    1.4289   -1.0461    0.0000 C   0  0  0  0  0  0  0  0  0  0  0  0
    1.0164   -1.7605    0.0000 C   0  0  0  0  0  0  0  0  0  0  0  0
    1.4289   -2.4750    0.0000 O   0  0  0  0  0  0  0  0  0  0  0  0
    2.2539   -2.4750    0.0000 C   0  0  0  0  0  0  0  0  0  0  0  0
    2.6664   -3.1895    0.0000 C   0  0  0  0  0  0  0  0  0  0  0  0
    3.4914   -3.1895    0.0000 N   0  0  0  0  0  0  0  0  0  0  0  0
    3.9039   -3.9039    0.0000 C   0  0  0  0  0  0  0  0  0  0  0  0
    4.7289   -3.9039    0.0000 C   0  0  0  0  0  0  0  0  0  0  0  0
    3.9039   -2.4750    0.0000 C   0  0  0  0  0  0  0  0  0  0  0  0
    4.7289   -2.4750    0.0000 C   0  0  0  0  0  0  0  0  0  0  0  0
    0.1914   -1.7605    0.0000 C   0  0  0  0  0  0  0  0  0  0  0  0
   -0.2211   -1.0461    0.0000 C   0  0  0  0  0  0  0  0  0  0  0  0
   -1.0461   -1.0461    0.0000 C   0  0  0  0  0  0  0  0  0  0  0  0
   -1.4586   -1.7605    0.0000 C   0  0  0  0  0  0  0  0  0  0  0  0
   -1.4586   -0.3316    0.0000 C   0  0  0  0  0  0  0  0  0  0  0  0
   -1.0461    0.3829    0.0000 C   0  0  0  0  0  0  0  0  0  0  0  0
   -1.4586    1.0974    0.0000 O   0  0  0  0  0  0  0  0  0  0  0  0
   -0.2211    0.3829    0.0000 O   0  0  0  0  0  0  0  0  0  0  0  0
    0.1914   -0.3316    0.0000 C   0  0  0  0  0  0  0  0  0  0  0  0
    1.0164   -0.3316    0.0000 C   0  0  0  0  0  0  0  0  0  0  0  0
  1  2  1  0  0  0  0
  2  3  1  0  0  0  0
  3  4  1  0  0  0  0
  4  5  1  0  0  0  0
  3  6  1  0  0  0  0
  6  7  1  0  0  0  0
  7  8  1  0  0  0  0
  8  9  1  0  0  0  0
  9 10  4  0  0  0  0
 10 11  1  0  0  0  0
 11 12  1  0  0  0  0
 12 13  1  0  0  0  0
 13 14  1  0  0  0  0
 14 15  1  0  0  0  0
 15 16  1  0  0  0  0
 14 17  1  0  0  0  0
 17 18  1  0  0  0  0
 10 19  4  0  0  0  0
 19 20  4  0  0  0  0
 20 21  1  0  0  0  0
 21 22  1  0  0  0  0
 21 23  2  0  0  0  0
 23 24  1  0  0  0  0
 24 25  2  0  0  0  0
 24 26  1  0  0  0  0
 26 27  1  0  0  0  0
 20 27  4  0  0  0  0
 27 28  4  0  0  0  0
  9 28  4  0  0  0  0
M  END
>  <ID>
3404

>  <PREFERRED_NAME>
oxamarin

>  <CAS_RN>
15301-80-1

>  <SYNONYMS>
oxamarin
oxamarin hydrochloride
oxamarin HCl

>  <URL>
http://drugcentral.org/drugcard/3404/view

$$$$
