oxapropanium
  -INDIGO-06102311092D

 10 10  0  0  0  0  0  0  0  0999 V2000
   -0.8612    2.7643    0.0000 C   0  0  0  0  0  0  0  0  0  0  0  0
   -0.1467    2.3518    0.0000 N   0  0  0  0  0  0  0  0  0  0  0  0
   -0.5592    1.6373    0.0000 C   0  0  0  0  0  0  0  0  0  0  0  0
    0.2658    3.0663    0.0000 C   0  0  0  0  0  0  0  0  0  0  0  0
    0.5678    1.9393    0.0000 C   0  0  0  0  0  0  0  0  0  0  0  0
    0.5678    1.1143    0.0000 C   0  0  0  0  0  0  0  0  0  0  0  0
    1.2352    0.6294    0.0000 C   0  0  0  0  0  0  0  0  0  0  0  0
    0.9803   -0.1553    0.0000 O   0  0  0  0  0  0  0  0  0  0  0  0
    0.1553   -0.1553    0.0000 C   0  0  0  0  0  0  0  0  0  0  0  0
   -0.0997    0.6294    0.0000 O   0  0  0  0  0  0  0  0  0  0  0  0
  1  2  1  0  0  0  0
  2  3  1  0  0  0  0
  2  4  1  0  0  0  0
  2  5  1  0  0  0  0
  5  6  1  0  0  0  0
  6  7  1  0  0  0  0
  7  8  1  0  0  0  0
  8  9  1  0  0  0  0
  9 10  1  0  0  0  0
  6 10  1  0  0  0  0
M  CHG  1   2   1
M  END
>  <ID>
3405

>  <PREFERRED_NAME>
oxapropanium

>  <CAS_RN>
5818-18-8

>  <SYNONYMS>
oxapropanium
dilvasene
oxapropanium iodide

>  <URL>
http://drugcentral.org/drugcard/3405/view

$$$$
