oxetorone
  -INDIGO-06102311032D

 24 27  0  0  0  0  0  0  0  0999 V2000
    2.9337   -2.7153    0.0000 C   0  0  0  0  0  0  0  0  0  0  0  0
    2.8266   -1.8973    0.0000 N   0  0  0  0  0  0  0  0  0  0  0  0
    3.4815   -1.3955    0.0000 C   0  0  0  0  0  0  0  0  0  0  0  0
    2.0646   -1.5810    0.0000 C   0  0  0  0  0  0  0  0  0  0  0  0
    1.9575   -0.7630    0.0000 C   0  0  0  0  0  0  0  0  0  0  0  0
    1.1956   -0.4467    0.0000 C   0  0  0  0  0  0  0  0  0  0  0  0
    1.0885    0.3713    0.0000 C   0  0  0  0  0  0  0  0  0  0  0  0
    0.3050    0.6298    0.0000 C   0  0  0  0  0  0  0  0  0  0  0  0
    0.0186    1.4035    0.0000 C   0  0  0  0  0  0  0  0  0  0  0  0
    0.4449    2.1098    0.0000 C   0  0  0  0  0  0  0  0  0  0  0  0
    1.2629    2.2169    0.0000 O   0  0  0  0  0  0  0  0  0  0  0  0
    1.8567    1.6441    0.0000 C   0  0  0  0  0  0  0  0  0  0  0  0
    2.6068    1.9875    0.0000 C   0  0  0  0  0  0  0  0  0  0  0  0
    3.2793    1.5096    0.0000 C   0  0  0  0  0  0  0  0  0  0  0  0
    3.2017    0.6883    0.0000 C   0  0  0  0  0  0  0  0  0  0  0  0
    2.4515    0.3448    0.0000 C   0  0  0  0  0  0  0  0  0  0  0  0
    1.7791    0.8227    0.0000 C   0  0  0  0  0  0  0  0  0  0  0  0
   -0.8057    1.3702    0.0000 C   0  0  0  0  0  0  0  0  0  0  0  0
   -1.0288    0.5759    0.0000 C   0  0  0  0  0  0  0  0  0  0  0  0
   -0.3423    0.1183    0.0000 O   0  0  0  0  0  0  0  0  0  0  0  0
   -1.8281    0.3719    0.0000 C   0  0  0  0  0  0  0  0  0  0  0  0
   -2.4045    0.9622    0.0000 C   0  0  0  0  0  0  0  0  0  0  0  0
   -2.1814    1.7565    0.0000 C   0  0  0  0  0  0  0  0  0  0  0  0
   -1.3821    1.9605    0.0000 C   0  0  0  0  0  0  0  0  0  0  0  0
  1  2  1  0  0  0  0
  2  3  1  0  0  0  0
  2  4  1  0  0  0  0
  4  5  1  0  0  0  0
  6  5  1  4  0  0  0
  6  7  2  0  0  0  0
  7  8  1  0  0  0  0
  8  9  4  0  0  0  0
  9 10  1  0  0  0  0
 10 11  1  0  0  0  0
 11 12  1  0  0  0  0
 12 13  4  0  0  0  0
 13 14  4  0  0  0  0
 14 15  4  0  0  0  0
 15 16  4  0  0  0  0
 16 17  4  0  0  0  0
  7 17  1  0  0  0  0
 12 17  4  0  0  0  0
  9 18  4  0  0  0  0
 18 19  4  0  0  0  0
 19 20  4  0  0  0  0
  8 20  4  0  0  0  0
 19 21  4  0  0  0  0
 21 22  4  0  0  0  0
 22 23  4  0  0  0  0
 23 24  4  0  0  0  0
 18 24  4  0  0  0  0
M  END
>  <ID>
2019

>  <PREFERRED_NAME>
oxetorone

>  <CAS_RN>
26020-55-3

>  <SYNONYMS>
oxetorone
oxetorone fumarate

>  <URL>
http://drugcentral.org/drugcard/2019/view

$$$$
