oxiglutatione
  -INDIGO-06102311182D

 40 39  0  0  1  0  0  0  0  0999 V2000
   20.6171    6.9533    0.0000 N   0  0  0  0  0  0  0  0  0  0  0  0
   20.6171    6.1283    0.0000 C   0  0  1  0  0  0  0  0  0  0  0  0
   19.9026    5.7158    0.0000 C   0  0  0  0  0  0  0  0  0  0  0  0
   19.1881    6.1283    0.0000 C   0  0  0  0  0  0  0  0  0  0  0  0
   18.4737    5.7158    0.0000 C   0  0  0  0  0  0  0  0  0  0  0  0
   18.4737    4.8908    0.0000 O   0  0  0  0  0  0  0  0  0  0  0  0
   17.7592    6.1283    0.0000 N   0  0  0  0  0  0  0  0  0  0  0  0
   17.0447    5.7158    0.0000 C   0  0  1  0  0  0  0  0  0  0  0  0
   16.3302    6.1283    0.0000 C   0  0  0  0  0  0  0  0  0  0  0  0
   15.6158    5.7158    0.0000 S   0  0  0  0  0  0  0  0  0  0  0  0
   14.9013    6.1283    0.0000 S   0  0  0  0  0  0  0  0  0  0  0  0
   14.1868    5.7158    0.0000 C   0  0  0  0  0  0  0  0  0  0  0  0
   13.4724    6.1283    0.0000 C   0  0  2  0  0  0  0  0  0  0  0  0
   12.7579    5.7158    0.0000 N   0  0  0  0  0  0  0  0  0  0  0  0
   12.0434    6.1283    0.0000 C   0  0  0  0  0  0  0  0  0  0  0  0
   12.0434    6.9533    0.0000 O   0  0  0  0  0  0  0  0  0  0  0  0
   11.3289    5.7158    0.0000 C   0  0  0  0  0  0  0  0  0  0  0  0
   10.6145    6.1283    0.0000 C   0  0  0  0  0  0  0  0  0  0  0  0
    9.9000    5.7158    0.0000 C   0  0  2  0  0  0  0  0  0  0  0  0
    9.9000    4.8908    0.0000 N   0  0  0  0  0  0  0  0  0  0  0  0
    9.1855    6.1283    0.0000 C   0  0  0  0  0  0  0  0  0  0  0  0
    8.4711    5.7158    0.0000 O   0  0  0  0  0  0  0  0  0  0  0  0
    9.1855    6.9533    0.0000 O   0  0  0  0  0  0  0  0  0  0  0  0
   13.4724    6.9533    0.0000 C   0  0  0  0  0  0  0  0  0  0  0  0
   14.1868    7.3658    0.0000 O   0  0  0  0  0  0  0  0  0  0  0  0
   12.7579    7.3658    0.0000 N   0  0  0  0  0  0  0  0  0  0  0  0
   12.7579    8.1908    0.0000 C   0  0  0  0  0  0  0  0  0  0  0  0
   12.0434    8.6033    0.0000 C   0  0  0  0  0  0  0  0  0  0  0  0
   11.3289    8.1908    0.0000 O   0  0  0  0  0  0  0  0  0  0  0  0
   12.0434    9.4283    0.0000 O   0  0  0  0  0  0  0  0  0  0  0  0
   17.0447    4.8908    0.0000 C   0  0  0  0  0  0  0  0  0  0  0  0
   16.3302    4.4783    0.0000 O   0  0  0  0  0  0  0  0  0  0  0  0
   17.7592    4.4783    0.0000 N   0  0  0  0  0  0  0  0  0  0  0  0
   17.7592    3.6533    0.0000 C   0  0  0  0  0  0  0  0  0  0  0  0
   18.4737    3.2408    0.0000 C   0  0  0  0  0  0  0  0  0  0  0  0
   19.1881    3.6533    0.0000 O   0  0  0  0  0  0  0  0  0  0  0  0
   18.4737    2.4158    0.0000 O   0  0  0  0  0  0  0  0  0  0  0  0
   21.3315    5.7158    0.0000 C   0  0  0  0  0  0  0  0  0  0  0  0
   22.0460    6.1283    0.0000 O   0  0  0  0  0  0  0  0  0  0  0  0
   21.3315    4.8908    0.0000 O   0  0  0  0  0  0  0  0  0  0  0  0
  2  1  1  6  0  0  0
  2  3  1  0  0  0  0
  3  4  1  0  0  0  0
  4  5  1  0  0  0  0
  5  6  2  0  0  0  0
  5  7  1  0  0  0  0
  8  7  1  6  0  0  0
  8  9  1  0  0  0  0
  9 10  1  0  0  0  0
 10 11  1  0  0  0  0
 11 12  1  0  0  0  0
 12 13  1  0  0  0  0
 13 14  1  6  0  0  0
 14 15  1  0  0  0  0
 15 16  2  0  0  0  0
 15 17  1  0  0  0  0
 17 18  1  0  0  0  0
 18 19  1  0  0  0  0
 19 20  1  6  0  0  0
 19 21  1  0  0  0  0
 21 22  1  0  0  0  0
 21 23  2  0  0  0  0
 13 24  1  0  0  0  0
 24 25  2  0  0  0  0
 24 26  1  0  0  0  0
 26 27  1  0  0  0  0
 27 28  1  0  0  0  0
 28 29  1  0  0  0  0
 28 30  2  0  0  0  0
  8 31  1  0  0  0  0
 31 32  2  0  0  0  0
 31 33  1  0  0  0  0
 33 34  1  0  0  0  0
 34 35  1  0  0  0  0
 35 36  1  0  0  0  0
 35 37  2  0  0  0  0
  2 38  1  0  0  0  0
 38 39  1  0  0  0  0
 38 40  2  0  0  0  0
M  END
>  <ID>
5130

>  <PREFERRED_NAME>
oxiglutatione

>  <CAS_RN>
27025-41-8

>  <SYNONYMS>
oxiglutatione
glutathione disulfide
glutathione disulphide

>  <URL>
http://drugcentral.org/drugcard/5130/view

$$$$
