pacritinib
  -INDIGO-06102311222D

 35 39  0  0  0  0  0  0  0  0999 V2000
    2.2221   -0.3475    0.0000 C   0  0  0  0  0  0  0  0  0  0  0  0
    1.9521    0.4321    0.0000 C   0  0  0  0  0  0  0  0  0  0  0  0
    1.1420    0.5880    0.0000 N   0  0  0  0  0  0  0  0  0  0  0  0
    0.5396    0.0242    0.0000 C   0  0  0  0  0  0  0  0  0  0  0  0
   -0.1827    0.4228    0.0000 C   0  0  0  0  0  0  0  0  0  0  0  0
   -0.0268    1.2330    0.0000 C   0  0  0  0  0  0  0  0  0  0  0  0
    0.7919    1.3350    0.0000 C   0  0  0  0  0  0  0  0  0  0  0  0
    3.0323   -0.5034    0.0000 O   0  0  0  0  0  0  0  0  0  0  0  0
    3.3023   -1.2829    0.0000 C   0  0  0  0  0  0  0  0  0  0  0  0
    2.7622   -1.9066    0.0000 C   0  0  0  0  0  0  0  0  0  0  0  0
    3.0323   -2.6861    0.0000 C   0  0  0  0  0  0  0  0  0  0  0  0
    3.8424   -2.8421    0.0000 C   0  0  0  0  0  0  0  0  0  0  0  0
    4.3825   -2.2184    0.0000 C   0  0  0  0  0  0  0  0  0  0  0  0
    4.1124   -1.4389    0.0000 C   0  0  0  0  0  0  0  0  0  0  0  0
    4.6525   -0.8152    0.0000 C   0  0  0  0  0  0  0  0  0  0  0  0
    4.3825   -0.0357    0.0000 O   0  0  0  0  0  0  0  0  0  0  0  0
    4.9226    0.5880    0.0000 C   0  0  0  0  0  0  0  0  0  0  0  0
    5.7327    0.4321    0.0000 C   0  0  0  0  0  0  0  0  0  0  0  0
    6.2728    1.0557    0.0000 C   0  0  0  0  0  0  0  0  0  0  0  0
    7.0829    0.8998    0.0000 C   0  0  0  0  0  0  0  0  0  0  0  0
    7.3530    0.1202    0.0000 O   0  0  0  0  0  0  0  0  0  0  0  0
    6.8129   -0.5034    0.0000 C   0  0  0  0  0  0  0  0  0  0  0  0
    7.0829   -1.2829    0.0000 C   0  0  0  0  0  0  0  0  0  0  0  0
    7.8931   -1.4389    0.0000 C   0  0  0  0  0  0  0  0  0  0  0  0
    8.1631   -2.2184    0.0000 C   0  0  0  0  0  0  0  0  0  0  0  0
    7.6230   -2.8421    0.0000 C   0  0  0  0  0  0  0  0  0  0  0  0
    6.8129   -2.6861    0.0000 C   0  0  0  0  0  0  0  0  0  0  0  0
    6.5428   -1.9066    0.0000 C   0  0  0  0  0  0  0  0  0  0  0  0
    6.2728   -3.3098    0.0000 C   0  0  0  0  0  0  0  0  0  0  0  0
    6.5428   -4.0893    0.0000 C   0  0  0  0  0  0  0  0  0  0  0  0
    6.0028   -4.7130    0.0000 C   0  0  0  0  0  0  0  0  0  0  0  0
    5.1926   -4.5571    0.0000 N   0  0  0  0  0  0  0  0  0  0  0  0
    4.9226   -3.7775    0.0000 C   0  0  0  0  0  0  0  0  0  0  0  0
    5.4627   -3.1539    0.0000 N   0  0  0  0  0  0  0  0  0  0  0  0
    4.1124   -3.6216    0.0000 N   0  0  0  0  0  0  0  0  0  0  0  0
  1  2  1  0  0  0  0
  2  3  1  0  0  0  0
  3  4  1  0  0  0  0
  4  5  1  0  0  0  0
  5  6  1  0  0  0  0
  6  7  1  0  0  0  0
  3  7  1  0  0  0  0
  1  8  1  0  0  0  0
  8  9  1  0  0  0  0
  9 10  4  0  0  0  0
 10 11  4  0  0  0  0
 11 12  4  0  0  0  0
 12 13  4  0  0  0  0
 13 14  4  0  0  0  0
  9 14  4  0  0  0  0
 14 15  1  0  0  0  0
 15 16  1  0  0  0  0
 16 17  1  0  0  0  0
 17 18  1  0  0  0  0
 18 19  2  0  0  0  0
 19 20  1  0  0  0  0
 20 21  1  0  0  0  0
 21 22  1  0  0  0  0
 22 23  1  0  0  0  0
 23 24  4  0  0  0  0
 24 25  4  0  0  0  0
 25 26  4  0  0  0  0
 26 27  4  0  0  0  0
 27 28  4  0  0  0  0
 23 28  4  0  0  0  0
 27 29  1  0  0  0  0
 29 30  2  0  0  0  0
 30 31  1  0  0  0  0
 31 32  2  0  0  0  0
 32 33  1  0  0  0  0
 33 34  1  0  0  0  0
 29 34  1  0  0  0  0
 33 35  2  0  0  0  0
 12 35  1  0  0  0  0
M  END
>  <ID>
5507

>  <PREFERRED_NAME>
pacritinib

>  <CAS_RN>
937272-79-2

>  <SYNONYMS>
pacritinib
pacritinib citrate
vonjo
SB1518
SB-1518

>  <URL>
http://drugcentral.org/drugcard/5507/view

$$$$
