paliperidone palmitate
  -INDIGO-06102311122D

 48 52  0  0  0  0  0  0  0  0999 V2000
   11.4315    0.0000    0.0000 C   0  0  0  0  0  0  0  0  0  0  0  0
   12.1460    0.4125    0.0000 C   0  0  0  0  0  0  0  0  0  0  0  0
   12.8605    0.0000    0.0000 C   0  0  0  0  0  0  0  0  0  0  0  0
   13.5749    0.4125    0.0000 C   0  0  0  0  0  0  0  0  0  0  0  0
   14.2894    0.0000    0.0000 C   0  0  0  0  0  0  0  0  0  0  0  0
   15.0039    0.4125    0.0000 C   0  0  0  0  0  0  0  0  0  0  0  0
   15.7184    0.0000    0.0000 C   0  0  0  0  0  0  0  0  0  0  0  0
   16.4328    0.4125    0.0000 C   0  0  0  0  0  0  0  0  0  0  0  0
   17.1473    0.0000    0.0000 C   0  0  0  0  0  0  0  0  0  0  0  0
   17.8618    0.4125    0.0000 C   0  0  0  0  0  0  0  0  0  0  0  0
   18.5762    0.0000    0.0000 C   0  0  0  0  0  0  0  0  0  0  0  0
   19.2907    0.4125    0.0000 C   0  0  0  0  0  0  0  0  0  0  0  0
   20.0052    0.0000    0.0000 C   0  0  0  0  0  0  0  0  0  0  0  0
   20.7197    0.4125    0.0000 C   0  0  0  0  0  0  0  0  0  0  0  0
   21.4341    0.0000    0.0000 C   0  0  0  0  0  0  0  0  0  0  0  0
   22.1486    0.4125    0.0000 C   0  0  0  0  0  0  0  0  0  0  0  0
   22.1486    1.2375    0.0000 O   0  0  0  0  0  0  0  0  0  0  0  0
   22.8631    0.0000    0.0000 O   0  0  0  0  0  0  0  0  0  0  0  0
   23.5775    0.4125    0.0000 C   0  0  0  0  0  0  0  0  0  0  0  0
   23.5775    1.2375    0.0000 C   0  0  0  0  0  0  0  0  0  0  0  0
   24.2920    1.6500    0.0000 C   0  0  0  0  0  0  0  0  0  0  0  0
   25.0065    1.2375    0.0000 C   0  0  0  0  0  0  0  0  0  0  0  0
   25.0065    0.4125    0.0000 N   0  0  0  0  0  0  0  0  0  0  0  0
   25.7210    0.0000    0.0000 C   0  0  0  0  0  0  0  0  0  0  0  0
   26.4354    0.4125    0.0000 O   0  0  0  0  0  0  0  0  0  0  0  0
   25.7210   -0.8250    0.0000 C   0  0  0  0  0  0  0  0  0  0  0  0
   26.4354   -1.2375    0.0000 C   0  0  0  0  0  0  0  0  0  0  0  0
   27.1499   -0.8250    0.0000 C   0  0  0  0  0  0  0  0  0  0  0  0
   27.8644   -1.2375    0.0000 N   0  0  0  0  0  0  0  0  0  0  0  0
   28.5788   -0.8250    0.0000 C   0  0  0  0  0  0  0  0  0  0  0  0
   29.2933   -1.2375    0.0000 C   0  0  0  0  0  0  0  0  0  0  0  0
   29.2933   -2.0625    0.0000 C   0  0  0  0  0  0  0  0  0  0  0  0
   28.5788   -2.4750    0.0000 C   0  0  0  0  0  0  0  0  0  0  0  0
   27.8644   -2.0625    0.0000 C   0  0  0  0  0  0  0  0  0  0  0  0
   30.0078   -2.4750    0.0000 C   0  0  0  0  0  0  0  0  0  0  0  0
   30.0940   -3.2955    0.0000 N   0  0  0  0  0  0  0  0  0  0  0  0
   30.9010   -3.4670    0.0000 O   0  0  0  0  0  0  0  0  0  0  0  0
   31.3135   -2.7525    0.0000 C   0  0  0  0  0  0  0  0  0  0  0  0
   30.7615   -2.1394    0.0000 C   0  0  0  0  0  0  0  0  0  0  0  0
   31.0164   -1.3548    0.0000 C   0  0  0  0  0  0  0  0  0  0  0  0
   31.8234   -1.1833    0.0000 C   0  0  0  0  0  0  0  0  0  0  0  0
   32.3754   -1.7964    0.0000 C   0  0  0  0  0  0  0  0  0  0  0  0
   33.1824   -1.6249    0.0000 F   0  0  0  0  0  0  0  0  0  0  0  0
   32.1205   -2.5810    0.0000 C   0  0  0  0  0  0  0  0  0  0  0  0
   25.0065   -1.2375    0.0000 C   0  0  0  0  0  0  0  0  0  0  0  0
   25.0065   -2.0625    0.0000 C   0  0  0  0  0  0  0  0  0  0  0  0
   24.2920   -0.8250    0.0000 N   0  0  0  0  0  0  0  0  0  0  0  0
   24.2920    0.0000    0.0000 C   0  0  0  0  0  0  0  0  0  0  0  0
  1  2  1  0  0  0  0
  2  3  1  0  0  0  0
  3  4  1  0  0  0  0
  4  5  1  0  0  0  0
  5  6  1  0  0  0  0
  6  7  1  0  0  0  0
  7  8  1  0  0  0  0
  8  9  1  0  0  0  0
  9 10  1  0  0  0  0
 10 11  1  0  0  0  0
 11 12  1  0  0  0  0
 12 13  1  0  0  0  0
 13 14  1  0  0  0  0
 14 15  1  0  0  0  0
 15 16  1  0  0  0  0
 16 17  2  0  0  0  0
 16 18  1  0  0  0  0
 18 19  1  0  0  0  0
 19 20  1  0  0  0  0
 20 21  1  0  0  0  0
 21 22  1  0  0  0  0
 22 23  1  0  0  0  0
 23 24  1  0  0  0  0
 24 25  2  0  0  0  0
 24 26  1  0  0  0  0
 26 27  1  0  0  0  0
 27 28  1  0  0  0  0
 28 29  1  0  0  0  0
 29 30  1  0  0  0  0
 30 31  1  0  0  0  0
 31 32  1  0  0  0  0
 32 33  1  0  0  0  0
 33 34  1  0  0  0  0
 29 34  1  0  0  0  0
 32 35  1  0  0  0  0
 35 36  4  0  0  0  0
 36 37  4  0  0  0  0
 37 38  4  0  0  0  0
 38 39  4  0  0  0  0
 35 39  4  0  0  0  0
 39 40  4  0  0  0  0
 40 41  4  0  0  0  0
 41 42  4  0  0  0  0
 42 43  1  0  0  0  0
 42 44  4  0  0  0  0
 38 44  4  0  0  0  0
 26 45  2  0  0  0  0
 45 46  1  0  0  0  0
 45 47  1  0  0  0  0
 47 48  2  0  0  0  0
 19 48  1  0  0  0  0
 23 48  1  0  0  0  0
M  END
>  <ID>
4498

>  <PREFERRED_NAME>
paliperidone palmitate

>  <CAS_RN>
199739-10-1

>  <SYNONYMS>
paliperidone palmitate
RO92670
invega sustenna

>  <URL>
http://drugcentral.org/drugcard/4498/view

$$$$
