paritaprevir
  -INDIGO-06102311172D

 55 62  0  0  1  0  0  0  0  0999 V2000
   -0.7930   -7.2760    0.0000 C   0  0  0  0  0  0  0  0  0  0  0  0
   -1.2055   -6.5616    0.0000 C   0  0  0  0  0  0  0  0  0  0  0  0
   -2.0305   -6.5616    0.0000 N   0  0  0  0  0  0  0  0  0  0  0  0
   -2.4430   -5.8471    0.0000 C   0  0  0  0  0  0  0  0  0  0  0  0
   -2.0305   -5.1326    0.0000 C   0  0  0  0  0  0  0  0  0  0  0  0
   -1.2055   -5.1326    0.0000 N   0  0  0  0  0  0  0  0  0  0  0  0
   -0.7930   -5.8471    0.0000 C   0  0  0  0  0  0  0  0  0  0  0  0
   -2.4430   -4.4181    0.0000 C   0  0  0  0  0  0  0  0  0  0  0  0
   -3.2680   -4.4181    0.0000 O   0  0  0  0  0  0  0  0  0  0  0  0
   -2.0305   -3.7037    0.0000 N   0  0  0  0  0  0  0  0  0  0  0  0
   -2.4430   -2.9892    0.0000 C   0  0  1  0  0  0  0  0  0  0  0  0
   -3.2277   -3.2441    0.0000 C   0  0  0  0  0  0  0  0  0  0  0  0
   -4.0481   -3.1579    0.0000 C   0  0  0  0  0  0  0  0  0  0  0  0
   -4.7626   -2.7454    0.0000 C   0  0  0  0  0  0  0  0  0  0  0  0
   -5.2475   -2.0780    0.0000 C   0  0  0  0  0  0  0  0  0  0  0  0
   -5.4191   -1.2710    0.0000 C   0  0  0  0  0  0  0  0  0  0  0  0
   -5.2475   -0.4640    0.0000 C   0  0  0  0  0  0  0  0  0  0  0  0
   -4.7626    0.2034    0.0000 C   0  0  0  0  0  0  0  0  0  0  0  0
   -4.0481    0.6159    0.0000 C   0  0  2  0  0  0  0  0  0  0  0  0
   -3.7126    1.3696    0.0000 C   0  0  0  0  0  0  0  0  0  0  0  0
   -3.2277    0.7022    0.0000 C   0  0  1  0  0  0  0  0  0  0  0  0
   -2.4430    0.4472    0.0000 N   0  0  0  0  0  0  0  0  0  0  0  0
   -1.8299   -0.1048    0.0000 C   0  0  0  0  0  0  0  0  0  0  0  0
   -1.1625    0.3801    0.0000 O   0  0  0  0  0  0  0  0  0  0  0  0
   -1.4944   -0.8585    0.0000 C   0  0  2  0  0  0  0  0  0  0  0  0
   -0.7098   -0.6036    0.0000 C   0  0  0  0  0  0  0  0  0  0  0  0
   -0.2248   -1.2710    0.0000 C   0  0  2  0  0  0  0  0  0  0  0  0
   -0.7098   -1.9384    0.0000 C   0  0  0  0  0  0  0  0  0  0  0  0
   -1.4944   -1.6835    0.0000 N   0  0  0  0  0  0  0  0  0  0  0  0
   -1.8299   -2.4372    0.0000 C   0  0  0  0  0  0  0  0  0  0  0  0
   -1.1625   -2.9221    0.0000 O   0  0  0  0  0  0  0  0  0  0  0  0
    0.6002   -1.2710    0.0000 O   0  0  0  0  0  0  0  0  0  0  0  0
    1.0127   -1.9855    0.0000 C   0  0  0  0  0  0  0  0  0  0  0  0
    1.8377   -1.9855    0.0000 N   0  0  0  0  0  0  0  0  0  0  0  0
    2.2502   -2.6999    0.0000 C   0  0  0  0  0  0  0  0  0  0  0  0
    3.0752   -2.6999    0.0000 C   0  0  0  0  0  0  0  0  0  0  0  0
    3.4877   -3.4144    0.0000 C   0  0  0  0  0  0  0  0  0  0  0  0
    3.0752   -4.1289    0.0000 C   0  0  0  0  0  0  0  0  0  0  0  0
    2.2502   -4.1289    0.0000 C   0  0  0  0  0  0  0  0  0  0  0  0
    1.8377   -3.4144    0.0000 C   0  0  0  0  0  0  0  0  0  0  0  0
    1.0127   -3.4144    0.0000 C   0  0  0  0  0  0  0  0  0  0  0  0
    0.6002   -4.1289    0.0000 C   0  0  0  0  0  0  0  0  0  0  0  0
   -0.2248   -4.1289    0.0000 C   0  0  0  0  0  0  0  0  0  0  0  0
   -0.6373   -3.4144    0.0000 C   0  0  0  0  0  0  0  0  0  0  0  0
   -0.2248   -2.6999    0.0000 C   0  0  0  0  0  0  0  0  0  0  0  0
    0.6002   -2.6999    0.0000 C   0  0  0  0  0  0  0  0  0  0  0  0
   -2.7427    1.3696    0.0000 C   0  0  0  0  0  0  0  0  0  0  0  0
   -1.9223    1.2834    0.0000 O   0  0  0  0  0  0  0  0  0  0  0  0
   -3.0783    2.1233    0.0000 N   0  0  0  0  0  0  0  0  0  0  0  0
   -2.5934    2.7907    0.0000 S   0  0  0  0  0  0  0  0  0  0  0  0
   -1.9259    2.3058    0.0000 O   0  0  0  0  0  0  0  0  0  0  0  0
   -3.2608    3.2756    0.0000 O   0  0  0  0  0  0  0  0  0  0  0  0
   -2.1084    3.4581    0.0000 C   0  0  0  0  0  0  0  0  0  0  0  0
   -2.0222    4.2786    0.0000 C   0  0  0  0  0  0  0  0  0  0  0  0
   -1.3548    3.7937    0.0000 C   0  0  0  0  0  0  0  0  0  0  0  0
  1  2  1  0  0  0  0
  2  3  4  0  0  0  0
  3  4  4  0  0  0  0
  4  5  4  0  0  0  0
  5  6  4  0  0  0  0
  6  7  4  0  0  0  0
  2  7  4  0  0  0  0
  5  8  1  0  0  0  0
  8  9  2  0  0  0  0
  8 10  1  0  0  0  0
 11 10  1  1  0  0  0
 11 12  1  0  0  0  0
 12 13  1  0  0  0  0
 13 14  1  0  0  0  0
 14 15  1  0  0  0  0
 15 16  1  0  0  0  0
 16 17  1  0  0  0  0
 17 18  2  0  0  0  0
 18 19  1  0  0  0  0
 19 20  1  6  0  0  0
 20 21  1  0  0  0  0
 19 21  1  0  0  0  0
 21 22  1  0  0  0  0
 22 23  1  0  0  0  0
 23 24  2  0  0  0  0
 23 25  1  0  0  0  0
 25 26  1  0  0  0  0
 26 27  1  0  0  0  0
 27 28  1  0  0  0  0
 28 29  1  0  0  0  0
 25 29  1  6  0  0  0
 29 30  1  0  0  0  0
 11 30  1  0  0  0  0
 30 31  2  0  0  0  0
 27 32  1  1  0  0  0
 32 33  1  0  0  0  0
 33 34  4  0  0  0  0
 34 35  4  0  0  0  0
 35 36  4  0  0  0  0
 36 37  4  0  0  0  0
 37 38  4  0  0  0  0
 38 39  4  0  0  0  0
 39 40  4  0  0  0  0
 35 40  4  0  0  0  0
 40 41  4  0  0  0  0
 41 42  4  0  0  0  0
 42 43  4  0  0  0  0
 43 44  4  0  0  0  0
 44 45  4  0  0  0  0
 45 46  4  0  0  0  0
 33 46  4  0  0  0  0
 41 46  4  0  0  0  0
 21 47  1  6  0  0  0
 47 48  2  0  0  0  0
 47 49  1  0  0  0  0
 49 50  1  0  0  0  0
 50 51  2  0  0  0  0
 50 52  2  0  0  0  0
 50 53  1  0  0  0  0
 53 54  1  0  0  0  0
 54 55  1  0  0  0  0
 53 55  1  0  0  0  0
M  END
>  <ID>
4913

>  <PREFERRED_NAME>
paritaprevir

>  <CAS_RN>
1216941-48-8

>  <SYNONYMS>
paritaprevir
paritaprevir dihydrate
veruprevir
ABT-450
paritapravir

>  <URL>
http://drugcentral.org/drugcard/4913/view

$$$$
