pemetrexed
  -INDIGO-06102311032D

 31 33  0  0  1  0  0  0  0  0999 V2000
   -9.8876    4.0982    0.0000 N   0  0  0  0  0  0  0  0  0  0  0  0
   -9.0806    3.9267    0.0000 C   0  0  0  0  0  0  0  0  0  0  0  0
   -8.5286    4.5397    0.0000 N   0  0  0  0  0  0  0  0  0  0  0  0
   -7.7216    4.3682    0.0000 C   0  0  0  0  0  0  0  0  0  0  0  0
   -7.1696    4.9813    0.0000 O   0  0  0  0  0  0  0  0  0  0  0  0
   -7.4667    3.5836    0.0000 C   0  0  0  0  0  0  0  0  0  0  0  0
   -8.0187    2.9705    0.0000 C   0  0  0  0  0  0  0  0  0  0  0  0
   -7.6062    2.2560    0.0000 N   0  0  0  0  0  0  0  0  0  0  0  0
   -6.7993    2.4276    0.0000 C   0  0  0  0  0  0  0  0  0  0  0  0
   -6.7130    3.2480    0.0000 C   0  0  0  0  0  0  0  0  0  0  0  0
   -5.9986    3.6605    0.0000 C   0  0  0  0  0  0  0  0  0  0  0  0
   -5.9986    4.4855    0.0000 C   0  0  0  0  0  0  0  0  0  0  0  0
   -5.2841    4.8980    0.0000 C   0  0  0  0  0  0  0  0  0  0  0  0
   -5.2841    5.7230    0.0000 C   0  0  0  0  0  0  0  0  0  0  0  0
   -4.5696    6.1355    0.0000 C   0  0  0  0  0  0  0  0  0  0  0  0
   -3.8551    5.7230    0.0000 C   0  0  0  0  0  0  0  0  0  0  0  0
   -3.8551    4.8980    0.0000 C   0  0  0  0  0  0  0  0  0  0  0  0
   -4.5696    4.4855    0.0000 C   0  0  0  0  0  0  0  0  0  0  0  0
   -3.1407    6.1355    0.0000 C   0  0  0  0  0  0  0  0  0  0  0  0
   -3.1407    6.9605    0.0000 O   0  0  0  0  0  0  0  0  0  0  0  0
   -2.4262    5.7230    0.0000 N   0  0  0  0  0  0  0  0  0  0  0  0
   -1.7117    6.1355    0.0000 C   0  0  1  0  0  0  0  0  0  0  0  0
   -0.9973    5.7230    0.0000 C   0  0  0  0  0  0  0  0  0  0  0  0
   -0.2828    6.1355    0.0000 C   0  0  0  0  0  0  0  0  0  0  0  0
    0.4317    5.7230    0.0000 C   0  0  0  0  0  0  0  0  0  0  0  0
    1.1462    6.1355    0.0000 O   0  0  0  0  0  0  0  0  0  0  0  0
    0.4317    4.8980    0.0000 O   0  0  0  0  0  0  0  0  0  0  0  0
   -1.7117    6.9605    0.0000 C   0  0  0  0  0  0  0  0  0  0  0  0
   -0.9973    7.3730    0.0000 O   0  0  0  0  0  0  0  0  0  0  0  0
   -2.4262    7.3730    0.0000 O   0  0  0  0  0  0  0  0  0  0  0  0
   -8.8257    3.1420    0.0000 N   0  0  0  0  0  0  0  0  0  0  0  0
  1  2  1  0  0  0  0
  2  3  2  0  0  0  0
  3  4  1  0  0  0  0
  4  5  2  0  0  0  0
  4  6  1  0  0  0  0
  6  7  4  0  0  0  0
  7  8  4  0  0  0  0
  8  9  4  0  0  0  0
  9 10  4  0  0  0  0
  6 10  4  0  0  0  0
 10 11  1  0  0  0  0
 11 12  1  0  0  0  0
 12 13  1  0  0  0  0
 13 14  4  0  0  0  0
 14 15  4  0  0  0  0
 15 16  4  0  0  0  0
 16 17  4  0  0  0  0
 17 18  4  0  0  0  0
 13 18  4  0  0  0  0
 16 19  1  0  0  0  0
 19 20  2  0  0  0  0
 19 21  1  0  0  0  0
 22 21  1  6  0  0  0
 22 23  1  0  0  0  0
 23 24  1  0  0  0  0
 24 25  1  0  0  0  0
 25 26  1  0  0  0  0
 25 27  2  0  0  0  0
 22 28  1  0  0  0  0
 28 29  1  0  0  0  0
 28 30  2  0  0  0  0
  7 31  1  0  0  0  0
  2 31  1  0  0  0  0
M  STY  1   1 DAT
M  SLB  1   1   1
M  SAL   1  1   8
M  SDT   1 MRV_IMPLICIT_H
M  SDD   1     0.0000    0.0000    DA    ALL  1       1
M  SED   1 IMPL_H1
M  END
>  <ID>
2073

>  <PREFERRED_NAME>
pemetrexed

>  <CAS_RN>
137281-23-3

>  <SYNONYMS>
pemetrexed
LY231514
pemetrexed diacid monohydrate
pemetrexed sodium
pemetrexed sodium hydrate
pemetrexed disodium
alimta
pemetrexed disodium heptahydrate

>  <URL>
http://drugcentral.org/drugcard/2073/view

$$$$
