pentostatin
  -INDIGO-06102311032D

 19 21  0  0  1  0  0  0  0  0999 V2000
   -0.8004    3.4836    0.0000 O   0  0  0  0  0  0  0  0  0  0  0  0
   -0.2483    2.8705    0.0000 C   0  0  0  0  0  0  0  0  0  0  0  0
   -0.5033    2.0859    0.0000 C   0  0  1  0  0  0  0  0  0  0  0  0
   -0.0184    1.4184    0.0000 O   0  0  0  0  0  0  0  0  0  0  0  0
   -0.5033    0.7510    0.0000 C   0  0  2  0  0  0  0  0  0  0  0  0
   -1.2879    1.0059    0.0000 C   0  0  0  0  0  0  0  0  0  0  0  0
   -1.2879    1.8309    0.0000 C   0  0  2  0  0  0  0  0  0  0  0  0
   -1.9553    2.3158    0.0000 O   0  0  0  0  0  0  0  0  0  0  0  0
   -0.2483   -0.0336    0.0000 N   0  0  0  0  0  0  0  0  0  0  0  0
   -0.7333   -0.7011    0.0000 C   0  0  0  0  0  0  0  0  0  0  0  0
   -0.2483   -1.3685    0.0000 N   0  0  0  0  0  0  0  0  0  0  0  0
    0.5363   -1.1136    0.0000 C   0  0  0  0  0  0  0  0  0  0  0  0
    0.5363   -0.2886    0.0000 C   0  0  0  0  0  0  0  0  0  0  0  0
    1.1813    0.2258    0.0000 N   0  0  0  0  0  0  0  0  0  0  0  0
    1.9856    0.0422    0.0000 C   0  0  0  0  0  0  0  0  0  0  0  0
    2.3436   -0.7011    0.0000 N   0  0  0  0  0  0  0  0  0  0  0  0
    1.9856   -1.4444    0.0000 C   0  0  0  0  0  0  0  0  0  0  0  0
    1.1813   -1.6280    0.0000 C   0  0  1  0  0  0  0  0  0  0  0  0
    0.9977   -2.4323    0.0000 O   0  0  0  0  0  0  0  0  0  0  0  0
  1  2  1  0  0  0  0
  3  2  1  1  0  0  0
  3  4  1  0  0  0  0
  4  5  1  0  0  0  0
  5  6  1  0  0  0  0
  6  7  1  0  0  0  0
  3  7  1  0  0  0  0
  7  8  1  6  0  0  0
  5  9  1  1  0  0  0
  9 10  4  0  0  0  0
 10 11  4  0  0  0  0
 11 12  4  0  0  0  0
 12 13  4  0  0  0  0
  9 13  4  0  0  0  0
 13 14  1  0  0  0  0
 14 15  1  0  0  0  0
 15 16  2  0  0  0  0
 16 17  1  0  0  0  0
 17 18  1  0  0  0  0
 12 18  1  0  0  0  0
 18 19  1  1  0  0  0
M  END
>  <ID>
2098

>  <PREFERRED_NAME>
pentostatin

>  <CAS_RN>
53910-25-1

>  <SYNONYMS>
pentostatin
deoxycoformycin
NSC218321

>  <URL>
http://drugcentral.org/drugcard/2098/view

$$$$
