peplomycin
  -INDIGO-06102311072D

102108  0  0  1  0  0  0  0  0999 V2000
   17.7903  -16.6926    0.0000 C   0  0  0  0  0  0  0  0  0  0  0  0
   18.5530  -16.3780    0.0000 C   0  0  1  0  0  0  0  0  0  0  0  0
   19.2067  -16.8813    0.0000 O   0  0  0  0  0  0  0  0  0  0  0  0
   18.6619  -15.5603    0.0000 C   0  0  2  0  0  0  0  0  0  0  0  0
   18.0082  -15.0570    0.0000 N   0  0  0  0  0  0  0  0  0  0  0  0
   17.2455  -15.3715    0.0000 C   0  0  0  0  0  0  0  0  0  0  0  0
   17.1365  -16.1893    0.0000 O   0  0  0  0  0  0  0  0  0  0  0  0
   16.5918  -14.8683    0.0000 C   0  0  1  0  0  0  0  0  0  0  0  0
   16.7007  -14.0505    0.0000 C   0  0  0  0  0  0  0  0  0  0  0  0
   15.8291  -15.1828    0.0000 C   0  0  2  0  0  0  0  0  0  0  0  0
   15.7201  -16.0006    0.0000 O   0  0  0  0  0  0  0  0  0  0  0  0
   15.1753  -14.6796    0.0000 C   0  0  1  0  0  0  0  0  0  0  0  0
   15.2843  -13.8618    0.0000 C   0  0  0  0  0  0  0  0  0  0  0  0
   14.4126  -14.9941    0.0000 N   0  0  0  0  0  0  0  0  0  0  0  0
   13.7589  -14.4909    0.0000 C   0  0  0  0  0  0  0  0  0  0  0  0
   13.8679  -13.6731    0.0000 O   0  0  0  0  0  0  0  0  0  0  0  0
   12.9962  -14.8054    0.0000 C   0  0  1  0  0  0  0  0  0  0  0  0
   12.3425  -14.3021    0.0000 N   0  0  0  0  0  0  0  0  0  0  0  0
   12.4514  -13.4844    0.0000 C   0  0  0  0  0  0  0  0  0  0  0  0
   13.2141  -13.1698    0.0000 O   0  0  0  0  0  0  0  0  0  0  0  0
   11.7977  -12.9811    0.0000 C   0  0  0  0  0  0  0  0  0  0  0  0
   11.9067  -12.1634    0.0000 N   0  0  0  0  0  0  0  0  0  0  0  0
   11.2529  -11.6601    0.0000 C   0  0  0  0  0  0  0  0  0  0  0  0
   10.4902  -11.9746    0.0000 N   0  0  0  0  0  0  0  0  0  0  0  0
   10.3813  -12.7924    0.0000 C   0  0  0  0  0  0  0  0  0  0  0  0
    9.8465  -12.1642    0.0000 N   0  0  0  0  0  0  0  0  0  0  0  0
   11.0350  -13.2957    0.0000 C   0  0  0  0  0  0  0  0  0  0  0  0
   10.9261  -14.1134    0.0000 C   0  0  0  0  0  0  0  0  0  0  0  0
   11.3619  -10.8423    0.0000 C   0  0  2  0  0  0  0  0  0  0  0  0
   12.1246  -10.5278    0.0000 C   0  0  0  0  0  0  0  0  0  0  0  0
   12.7783  -11.0310    0.0000 C   0  0  0  0  0  0  0  0  0  0  0  0
   12.6693  -11.8488    0.0000 N   0  0  0  0  0  0  0  0  0  0  0  0
   13.5410  -10.7165    0.0000 O   0  0  0  0  0  0  0  0  0  0  0  0
   10.7081  -10.3391    0.0000 N   0  0  0  0  0  0  0  0  0  0  0  0
   10.8171   -9.5213    0.0000 C   0  0  0  0  0  0  0  0  0  0  0  0
   10.1634   -9.0181    0.0000 C   0  0  2  0  0  0  0  0  0  0  0  0
    9.4007   -9.3326    0.0000 N   0  0  0  0  0  0  0  0  0  0  0  0
   10.2723   -8.2003    0.0000 C   0  0  0  0  0  0  0  0  0  0  0  0
    9.6186   -7.6970    0.0000 N   0  0  0  0  0  0  0  0  0  0  0  0
   11.0350   -7.8858    0.0000 O   0  0  0  0  0  0  0  0  0  0  0  0
   12.8873  -15.6232    0.0000 C   0  0  1  0  0  0  0  0  0  0  0  0
   12.1246  -15.9377    0.0000 O   0  0  0  0  0  0  0  0  0  0  0  0
   11.3332  -16.1708    0.0000 C   0  0  2  0  0  0  0  0  0  0  0  0
   11.1393  -16.9727    0.0000 O   0  0  0  0  0  0  0  0  0  0  0  0
   10.3479  -17.2058    0.0000 C   0  0  1  0  0  0  0  0  0  0  0  0
   10.1541  -18.0077    0.0000 C   0  0  0  0  0  0  0  0  0  0  0  0
   10.7517  -18.5765    0.0000 O   0  0  0  0  0  0  0  0  0  0  0  0
    9.7504  -16.6369    0.0000 C   0  0  1  0  0  0  0  0  0  0  0  0
    8.9590  -16.8700    0.0000 O   0  0  0  0  0  0  0  0  0  0  0  0
    9.9442  -15.8350    0.0000 C   0  0  2  0  0  0  0  0  0  0  0  0
    9.3467  -15.2662    0.0000 O   0  0  0  0  0  0  0  0  0  0  0  0
   10.7356  -15.6020    0.0000 C   0  0  2  0  0  0  0  0  0  0  0  0
   10.9295  -14.8000    0.0000 O   0  0  0  0  0  0  0  0  0  0  0  0
   10.3319  -14.2312    0.0000 C   0  0  1  0  0  0  0  0  0  0  0  0
   10.5258  -13.4293    0.0000 O   0  0  0  0  0  0  0  0  0  0  0  0
    9.9282  -12.8605    0.0000 C   0  0  2  0  0  0  0  0  0  0  0  0
   10.1220  -12.0586    0.0000 C   0  0  0  0  0  0  0  0  0  0  0  0
    9.5245  -11.4898    0.0000 O   0  0  0  0  0  0  0  0  0  0  0  0
    9.1368  -13.0936    0.0000 C   0  0  1  0  0  0  0  0  0  0  0  0
    8.5393  -12.5248    0.0000 O   0  0  0  0  0  0  0  0  0  0  0  0
    8.9430  -13.8955    0.0000 C   0  0  2  0  0  0  0  0  0  0  0  0
    8.1516  -14.1286    0.0000 O   0  0  0  0  0  0  0  0  0  0  0  0
    7.5540  -13.5597    0.0000 C   0  0  0  0  0  0  0  0  0  0  0  0
    7.7479  -12.7578    0.0000 N   0  0  0  0  0  0  0  0  0  0  0  0
    6.7626  -13.7928    0.0000 O   0  0  0  0  0  0  0  0  0  0  0  0
    9.5405  -14.4643    0.0000 C   0  0  2  0  0  0  0  0  0  0  0  0
    8.9124  -14.9991    0.0000 O   0  0  0  0  0  0  0  0  0  0  0  0
   13.5410  -16.1264    0.0000 C   0  0  0  0  0  0  0  0  0  0  0  0
   14.3324  -15.8933    0.0000 C   0  0  0  0  0  0  0  0  0  0  0  0
   14.7986  -16.5740    0.0000 N   0  0  0  0  0  0  0  0  0  0  0  0
   14.2954  -17.2277    0.0000 C   0  0  0  0  0  0  0  0  0  0  0  0
   13.5181  -16.9511    0.0000 N   0  0  0  0  0  0  0  0  0  0  0  0
   19.4246  -15.2457    0.0000 C   0  0  0  0  0  0  0  0  0  0  0  0
   19.5336  -14.4280    0.0000 O   0  0  0  0  0  0  0  0  0  0  0  0
   20.0783  -15.7490    0.0000 N   0  0  0  0  0  0  0  0  0  0  0  0
   20.8410  -15.4344    0.0000 C   0  0  0  0  0  0  0  0  0  0  0  0
   21.4948  -15.9377    0.0000 C   0  0  0  0  0  0  0  0  0  0  0  0
   22.2575  -15.6232    0.0000 C   0  0  0  0  0  0  0  0  0  0  0  0
   22.9602  -16.0553    0.0000 N   0  0  0  0  0  0  0  0  0  0  0  0
   23.5884  -15.5205    0.0000 C   0  0  0  0  0  0  0  0  0  0  0  0
   23.2739  -14.7578    0.0000 C   0  0  0  0  0  0  0  0  0  0  0  0
   22.4513  -14.8213    0.0000 S   0  0  0  0  0  0  0  0  0  0  0  0
   24.3903  -15.7143    0.0000 C   0  0  0  0  0  0  0  0  0  0  0  0
   25.0185  -15.1795    0.0000 N   0  0  0  0  0  0  0  0  0  0  0  0
   25.7212  -15.6117    0.0000 C   0  0  0  0  0  0  0  0  0  0  0  0
   25.5274  -16.4136    0.0000 C   0  0  0  0  0  0  0  0  0  0  0  0
   24.7048  -16.4770    0.0000 S   0  0  0  0  0  0  0  0  0  0  0  0
   26.4839  -15.2971    0.0000 C   0  0  0  0  0  0  0  0  0  0  0  0
   26.5929  -14.4794    0.0000 O   0  0  0  0  0  0  0  0  0  0  0  0
   27.1376  -15.8004    0.0000 N   0  0  0  0  0  0  0  0  0  0  0  0
   27.9003  -15.4859    0.0000 C   0  0  0  0  0  0  0  0  0  0  0  0
   28.5541  -15.9891    0.0000 C   0  0  0  0  0  0  0  0  0  0  0  0
   29.3168  -15.6746    0.0000 C   0  0  0  0  0  0  0  0  0  0  0  0
   29.9705  -16.1778    0.0000 N   0  0  0  0  0  0  0  0  0  0  0  0
   30.7332  -15.8633    0.0000 C   0  0  1  0  0  0  0  0  0  0  0  0
   30.8421  -15.0455    0.0000 C   0  0  0  0  0  0  0  0  0  0  0  0
   31.3869  -16.3665    0.0000 C   0  0  0  0  0  0  0  0  0  0  0  0
   32.1496  -16.0520    0.0000 C   0  0  0  0  0  0  0  0  0  0  0  0
   32.8033  -16.5553    0.0000 C   0  0  0  0  0  0  0  0  0  0  0  0
   32.6944  -17.3730    0.0000 C   0  0  0  0  0  0  0  0  0  0  0  0
   31.9317  -17.6876    0.0000 C   0  0  0  0  0  0  0  0  0  0  0  0
   31.2780  -17.1843    0.0000 C   0  0  0  0  0  0  0  0  0  0  0  0
  1  2  1  0  0  0  0
  2  3  1  6  0  0  0
  2  4  1  0  0  0  0
  4  5  1  6  0  0  0
  5  6  1  0  0  0  0
  6  7  2  0  0  0  0
  6  8  1  0  0  0  0
  8  9  1  6  0  0  0
  8 10  1  0  0  0  0
 10 11  1  6  0  0  0
 10 12  1  0  0  0  0
 12 13  1  6  0  0  0
 12 14  1  0  0  0  0
 14 15  1  0  0  0  0
 15 16  2  0  0  0  0
 15 17  1  0  0  0  0
 17 18  1  6  0  0  0
 18 19  1  0  0  0  0
 19 20  2  0  0  0  0
 19 21  1  0  0  0  0
 21 22  4  0  0  0  0
 22 23  4  0  0  0  0
 23 24  4  0  0  0  0
 24 25  4  0  0  0  0
 25 26  1  0  0  0  0
 25 27  4  0  0  0  0
 21 27  4  0  0  0  0
 27 28  1  0  0  0  0
 23 29  1  0  0  0  0
 29 30  1  0  0  0  0
 30 31  1  0  0  0  0
 31 32  1  0  0  0  0
 31 33  2  0  0  0  0
 29 34  1  1  0  0  0
 34 35  1  0  0  0  0
 35 36  1  0  0  0  0
 36 37  1  6  0  0  0
 36 38  1  0  0  0  0
 38 39  1  0  0  0  0
 38 40  2  0  0  0  0
 17 41  1  0  0  0  0
 41 42  1  6  0  0  0
 43 42  1  6  0  0  0
 43 44  1  0  0  0  0
 44 45  1  0  0  0  0
 45 46  1  1  0  0  0
 46 47  1  0  0  0  0
 45 48  1  0  0  0  0
 48 49  1  1  0  0  0
 48 50  1  0  0  0  0
 50 51  1  6  0  0  0
 50 52  1  0  0  0  0
 43 52  1  0  0  0  0
 52 53  1  6  0  0  0
 54 53  1  6  0  0  0
 54 55  1  0  0  0  0
 55 56  1  0  0  0  0
 56 57  1  1  0  0  0
 57 58  1  0  0  0  0
 56 59  1  0  0  0  0
 59 60  1  6  0  0  0
 59 61  1  0  0  0  0
 61 62  1  1  0  0  0
 62 63  1  0  0  0  0
 63 64  1  0  0  0  0
 63 65  2  0  0  0  0
 61 66  1  0  0  0  0
 54 66  1  0  0  0  0
 66 67  1  1  0  0  0
 41 68  1  0  0  0  0
 68 69  4  0  0  0  0
 69 70  4  0  0  0  0
 70 71  4  0  0  0  0
 71 72  4  0  0  0  0
 68 72  4  0  0  0  0
  4 73  1  0  0  0  0
 73 74  2  0  0  0  0
 73 75  1  0  0  0  0
 75 76  1  0  0  0  0
 76 77  1  0  0  0  0
 77 78  1  0  0  0  0
 78 79  4  0  0  0  0
 79 80  4  0  0  0  0
 80 81  4  0  0  0  0
 81 82  4  0  0  0  0
 78 82  4  0  0  0  0
 80 83  1  0  0  0  0
 83 84  4  0  0  0  0
 84 85  4  0  0  0  0
 85 86  4  0  0  0  0
 86 87  4  0  0  0  0
 83 87  4  0  0  0  0
 85 88  1  0  0  0  0
 88 89  2  0  0  0  0
 88 90  1  0  0  0  0
 90 91  1  0  0  0  0
 91 92  1  0  0  0  0
 92 93  1  0  0  0  0
 93 94  1  0  0  0  0
 94 95  1  0  0  0  0
 95 96  1  1  0  0  0
 95 97  1  0  0  0  0
 97 98  4  0  0  0  0
 98 99  4  0  0  0  0
 99100  4  0  0  0  0
100101  4  0  0  0  0
101102  4  0  0  0  0
 97102  4  0  0  0  0
M  STY  1   1 DAT
M  SLB  1   1   1
M  SAL   1  1  70
M  SDT   1 MRV_IMPLICIT_H
M  SDD   1     0.0000    0.0000    DA    ALL  1       1
M  SED   1 IMPL_H1
M  END
>  <ID>
2965

>  <PREFERRED_NAME>
peplomycin

>  <CAS_RN>
68247-85-8

>  <SYNONYMS>
peplomycin
Bleomycin PEP
pepleomycin
peplomycin sulfate
NK631
NK-631

>  <URL>
http://drugcentral.org/drugcard/2965/view

$$$$
