perospirone
  -INDIGO-06102311032D

 30 34  0  0  1  0  0  0  0  0999 V2000
    2.0231   -7.9667    0.0000 O   0  0  0  0  0  0  0  0  0  0  0  0
    1.1981   -7.9667    0.0000 C   0  0  0  0  0  0  0  0  0  0  0  0
    0.7132   -8.6342    0.0000 C   0  0  1  0  0  0  0  0  0  0  0  0
    0.8847   -9.4412    0.0000 C   0  0  0  0  0  0  0  0  0  0  0  0
    0.2716   -9.9932    0.0000 C   0  0  0  0  0  0  0  0  0  0  0  0
   -0.5130   -9.7382    0.0000 C   0  0  0  0  0  0  0  0  0  0  0  0
   -0.6846   -8.9313    0.0000 C   0  0  0  0  0  0  0  0  0  0  0  0
   -0.0715   -8.3792    0.0000 C   0  0  1  0  0  0  0  0  0  0  0  0
   -0.0715   -7.5542    0.0000 C   0  0  0  0  0  0  0  0  0  0  0  0
   -0.7389   -7.0693    0.0000 O   0  0  0  0  0  0  0  0  0  0  0  0
    0.7132   -7.2993    0.0000 N   0  0  0  0  0  0  0  0  0  0  0  0
    0.9681   -6.5147    0.0000 C   0  0  0  0  0  0  0  0  0  0  0  0
    0.4161   -5.9016    0.0000 C   0  0  0  0  0  0  0  0  0  0  0  0
    0.6710   -5.1170    0.0000 C   0  0  0  0  0  0  0  0  0  0  0  0
    0.1190   -4.5039    0.0000 C   0  0  0  0  0  0  0  0  0  0  0  0
    0.3739   -3.7192    0.0000 N   0  0  0  0  0  0  0  0  0  0  0  0
   -0.1781   -3.1062    0.0000 C   0  0  0  0  0  0  0  0  0  0  0  0
    0.0768   -2.3215    0.0000 C   0  0  0  0  0  0  0  0  0  0  0  0
    0.8838   -2.1500    0.0000 N   0  0  0  0  0  0  0  0  0  0  0  0
    1.4358   -2.7631    0.0000 C   0  0  0  0  0  0  0  0  0  0  0  0
    1.1809   -3.5477    0.0000 C   0  0  0  0  0  0  0  0  0  0  0  0
    1.1387   -1.3654    0.0000 C   0  0  0  0  0  0  0  0  0  0  0  0
    0.6538   -0.6979    0.0000 N   0  0  0  0  0  0  0  0  0  0  0  0
    1.1387   -0.0305    0.0000 S   0  0  0  0  0  0  0  0  0  0  0  0
    1.9233   -0.2854    0.0000 C   0  0  0  0  0  0  0  0  0  0  0  0
    2.6378    0.1271    0.0000 C   0  0  0  0  0  0  0  0  0  0  0  0
    3.3523   -0.2854    0.0000 C   0  0  0  0  0  0  0  0  0  0  0  0
    3.3523   -1.1104    0.0000 C   0  0  0  0  0  0  0  0  0  0  0  0
    2.6378   -1.5229    0.0000 C   0  0  0  0  0  0  0  0  0  0  0  0
    1.9233   -1.1104    0.0000 C   0  0  0  0  0  0  0  0  0  0  0  0
  1  2  2  0  0  0  0
  3  2  1  1  0  0  0
  3  4  1  0  0  0  0
  4  5  1  0  0  0  0
  5  6  1  0  0  0  0
  6  7  1  0  0  0  0
  7  8  1  0  0  0  0
  3  8  1  0  0  0  0
  8  9  1  1  0  0  0
  9 10  2  0  0  0  0
  9 11  1  0  0  0  0
  2 11  1  0  0  0  0
 11 12  1  0  0  0  0
 12 13  1  0  0  0  0
 13 14  1  0  0  0  0
 14 15  1  0  0  0  0
 15 16  1  0  0  0  0
 16 17  1  0  0  0  0
 17 18  1  0  0  0  0
 18 19  1  0  0  0  0
 19 20  1  0  0  0  0
 20 21  1  0  0  0  0
 16 21  1  0  0  0  0
 19 22  1  0  0  0  0
 22 23  4  0  0  0  0
 23 24  4  0  0  0  0
 24 25  4  0  0  0  0
 25 26  4  0  0  0  0
 26 27  4  0  0  0  0
 27 28  4  0  0  0  0
 28 29  4  0  0  0  0
 29 30  4  0  0  0  0
 22 30  4  0  0  0  0
 25 30  4  0  0  0  0
M  END
>  <ID>
2112

>  <PREFERRED_NAME>
perospirone

>  <CAS_RN>
150915-41-6

>  <SYNONYMS>
perospirone
lullan
SM-9018
SM 9018
perospirone hydrochloride
perospirone hydrochloride dihydrate
perospirone HCl
perospirone hydrochloride hydrate

>  <URL>
http://drugcentral.org/drugcard/2112/view

$$$$
