petrichloral
  -INDIGO-06102311032D

 33 32  0  0  0  0  0  0  0  0999 V2000
    2.8875    2.7474    0.0000 O   0  0  0  0  0  0  0  0  0  0  0  0
    2.8875    3.5724    0.0000 C   0  0  0  0  0  0  0  0  0  0  0  0
    2.1730    3.9849    0.0000 O   0  0  0  0  0  0  0  0  0  0  0  0
    2.1730    4.8099    0.0000 C   0  0  0  0  0  0  0  0  0  0  0  0
    1.4586    5.2224    0.0000 C   0  0  0  0  0  0  0  0  0  0  0  0
    1.8711    5.9368    0.0000 C   0  0  0  0  0  0  0  0  0  0  0  0
    1.4586    6.6513    0.0000 O   0  0  0  0  0  0  0  0  0  0  0  0
    1.8711    7.3658    0.0000 C   0  0  0  0  0  0  0  0  0  0  0  0
    2.6961    7.3658    0.0000 O   0  0  0  0  0  0  0  0  0  0  0  0
    1.4586    8.0802    0.0000 C   0  0  0  0  0  0  0  0  0  0  0  0
    1.0461    8.7947    0.0000 Cl  0  0  0  0  0  0  0  0  0  0  0  0
    0.7441    7.6677    0.0000 Cl  0  0  0  0  0  0  0  0  0  0  0  0
    2.1730    8.4927    0.0000 Cl  0  0  0  0  0  0  0  0  0  0  0  0
    1.0461    4.5079    0.0000 C   0  0  0  0  0  0  0  0  0  0  0  0
    1.4586    3.7934    0.0000 O   0  0  0  0  0  0  0  0  0  0  0  0
    1.0461    3.0789    0.0000 C   0  0  0  0  0  0  0  0  0  0  0  0
    0.2211    3.0789    0.0000 O   0  0  0  0  0  0  0  0  0  0  0  0
    1.4586    2.3645    0.0000 C   0  0  0  0  0  0  0  0  0  0  0  0
    1.8711    1.6500    0.0000 Cl  0  0  0  0  0  0  0  0  0  0  0  0
    0.7441    1.9520    0.0000 Cl  0  0  0  0  0  0  0  0  0  0  0  0
    2.1730    2.7770    0.0000 Cl  0  0  0  0  0  0  0  0  0  0  0  0
    0.7441    5.6349    0.0000 C   0  0  0  0  0  0  0  0  0  0  0  0
    0.0296    5.2224    0.0000 O   0  0  0  0  0  0  0  0  0  0  0  0
   -0.6849    5.6349    0.0000 C   0  0  0  0  0  0  0  0  0  0  0  0
   -1.3993    5.2224    0.0000 O   0  0  0  0  0  0  0  0  0  0  0  0
   -0.6849    6.4599    0.0000 C   0  0  0  0  0  0  0  0  0  0  0  0
    0.1401    6.4599    0.0000 Cl  0  0  0  0  0  0  0  0  0  0  0  0
   -1.5099    6.4599    0.0000 Cl  0  0  0  0  0  0  0  0  0  0  0  0
   -0.6849    7.2849    0.0000 Cl  0  0  0  0  0  0  0  0  0  0  0  0
    3.6020    3.9849    0.0000 C   0  0  0  0  0  0  0  0  0  0  0  0
    4.0145    3.2704    0.0000 Cl  0  0  0  0  0  0  0  0  0  0  0  0
    3.1895    4.6993    0.0000 Cl  0  0  0  0  0  0  0  0  0  0  0  0
    4.3164    4.3974    0.0000 Cl  0  0  0  0  0  0  0  0  0  0  0  0
  1  2  1  0  0  0  0
  2  3  1  0  0  0  0
  3  4  1  0  0  0  0
  4  5  1  0  0  0  0
  5  6  1  0  0  0  0
  6  7  1  0  0  0  0
  7  8  1  0  0  0  0
  8  9  1  0  0  0  0
  8 10  1  0  0  0  0
 10 11  1  0  0  0  0
 10 12  1  0  0  0  0
 10 13  1  0  0  0  0
  5 14  1  0  0  0  0
 14 15  1  0  0  0  0
 15 16  1  0  0  0  0
 16 17  1  0  0  0  0
 16 18  1  0  0  0  0
 18 19  1  0  0  0  0
 18 20  1  0  0  0  0
 18 21  1  0  0  0  0
  5 22  1  0  0  0  0
 22 23  1  0  0  0  0
 23 24  1  0  0  0  0
 24 25  1  0  0  0  0
 24 26  1  0  0  0  0
 26 27  1  0  0  0  0
 26 28  1  0  0  0  0
 26 29  1  0  0  0  0
  2 30  1  0  0  0  0
 30 31  1  0  0  0  0
 30 32  1  0  0  0  0
 30 33  1  0  0  0  0
M  END
>  <ID>
2086

>  <PREFERRED_NAME>
petrichloral

>  <CAS_RN>
78-12-6

>  <SYNONYMS>
petrichloral
pentaerythritol chloral
perichlor
periclor
pentaerythritol tetrachloral hemiacetal

>  <URL>
http://drugcentral.org/drugcard/2086/view

$$$$
