phenylephrine
  -INDIGO-06102311032D

 12 12  0  0  1  0  0  0  0  0999 V2000
   -0.7145    3.7125    0.0000 C   0  0  0  0  0  0  0  0  0  0  0  0
    0.0000    3.3000    0.0000 N   0  0  0  0  0  0  0  0  0  0  0  0
    0.0000    2.4750    0.0000 C   0  0  0  0  0  0  0  0  0  0  0  0
    0.7145    2.0625    0.0000 C   0  0  2  0  0  0  0  0  0  0  0  0
    1.4289    2.4750    0.0000 O   0  0  0  0  0  0  0  0  0  0  0  0
    0.7145    1.2375    0.0000 C   0  0  0  0  0  0  0  0  0  0  0  0
    1.4289    0.8250    0.0000 C   0  0  0  0  0  0  0  0  0  0  0  0
    1.4289    0.0000    0.0000 C   0  0  0  0  0  0  0  0  0  0  0  0
    2.1434   -0.4125    0.0000 O   0  0  0  0  0  0  0  0  0  0  0  0
    0.7145   -0.4125    0.0000 C   0  0  0  0  0  0  0  0  0  0  0  0
    0.0000    0.0000    0.0000 C   0  0  0  0  0  0  0  0  0  0  0  0
    0.0000    0.8250    0.0000 C   0  0  0  0  0  0  0  0  0  0  0  0
  1  2  1  0  0  0  0
  2  3  1  0  0  0  0
  3  4  1  0  0  0  0
  4  5  1  6  0  0  0
  4  6  1  0  0  0  0
  6  7  4  0  0  0  0
  7  8  4  0  0  0  0
  8  9  1  0  0  0  0
  8 10  4  0  0  0  0
 10 11  4  0  0  0  0
 11 12  4  0  0  0  0
  6 12  4  0  0  0  0
M  END
>  <ID>
2146

>  <PREFERRED_NAME>
phenylephrine

>  <CAS_RN>
59-42-7

>  <SYNONYMS>
phenylephrine
(-)-Phenylephrine
(-)-m-Hydroxy-alpha-(methylaminomethyl)benzyl alcohol
(-)-m-Oxedrine
(-)-m-Synephrine
(R)-Phenylephrine
L-Phenylephedrine
mesatone
metaoxedrin
metaoxedrine
metasympatol
metasynephrine
mezaton
l-Phenylephrine
phenylephrine hydrochloride
phenylephrine tannate
phenylephrine bitartrate
phenylephrine HCl

>  <URL>
http://drugcentral.org/drugcard/2146/view

$$$$
