phenallymal
  -INDIGO-06102311102D

 18 19  0  0  0  0  0  0  0  0999 V2000
    2.0572    0.0762    0.0000 C   0  0  0  0  0  0  0  0  0  0  0  0
    1.5269   -0.5558    0.0000 C   0  0  0  0  0  0  0  0  0  0  0  0
    0.7145   -0.4125    0.0000 C   0  0  0  0  0  0  0  0  0  0  0  0
    0.1842   -1.0445    0.0000 C   0  0  0  0  0  0  0  0  0  0  0  0
   -0.5303   -1.4570    0.0000 C   0  0  0  0  0  0  0  0  0  0  0  0
   -1.2448   -1.0445    0.0000 O   0  0  0  0  0  0  0  0  0  0  0  0
   -0.5303   -2.2820    0.0000 N   0  0  0  0  0  0  0  0  0  0  0  0
    0.1842   -2.6945    0.0000 C   0  0  0  0  0  0  0  0  0  0  0  0
    0.1842   -3.5195    0.0000 O   0  0  0  0  0  0  0  0  0  0  0  0
    0.8986   -2.2820    0.0000 N   0  0  0  0  0  0  0  0  0  0  0  0
    0.8986   -1.4570    0.0000 C   0  0  0  0  0  0  0  0  0  0  0  0
    1.6131   -1.0445    0.0000 O   0  0  0  0  0  0  0  0  0  0  0  0
   -0.3461   -0.4125    0.0000 C   0  0  0  0  0  0  0  0  0  0  0  0
   -1.1586   -0.5558    0.0000 C   0  0  0  0  0  0  0  0  0  0  0  0
   -1.6889    0.0762    0.0000 C   0  0  0  0  0  0  0  0  0  0  0  0
   -1.4067    0.8515    0.0000 C   0  0  0  0  0  0  0  0  0  0  0  0
   -0.5943    0.9947    0.0000 C   0  0  0  0  0  0  0  0  0  0  0  0
   -0.0640    0.3627    0.0000 C   0  0  0  0  0  0  0  0  0  0  0  0
  1  2  2  0  0  0  0
  2  3  1  0  0  0  0
  3  4  1  0  0  0  0
  4  5  1  0  0  0  0
  5  6  2  0  0  0  0
  5  7  1  0  0  0  0
  7  8  1  0  0  0  0
  8  9  2  0  0  0  0
  8 10  1  0  0  0  0
 10 11  1  0  0  0  0
  4 11  1  0  0  0  0
 11 12  2  0  0  0  0
  4 13  1  0  0  0  0
 13 14  4  0  0  0  0
 14 15  4  0  0  0  0
 15 16  4  0  0  0  0
 16 17  4  0  0  0  0
 17 18  4  0  0  0  0
 13 18  4  0  0  0  0
M  END
>  <ID>
3810

>  <PREFERRED_NAME>
phenallymal

>  <CAS_RN>
115-43-5

>  <SYNONYMS>
phenallymal
fenallymal
allofenyl
allophenylum
alphenal
alphenate
phenallymalum
prophenal

>  <URL>
http://drugcentral.org/drugcard/3810/view

$$$$
