phenoxybenzamine
  -INDIGO-06102311032D

 21 22  0  0  0  0  0  0  0  0999 V2000
    2.1434   -1.4586    0.0000 C   0  0  0  0  0  0  0  0  0  0  0  0
    2.5559   -2.1730    0.0000 C   0  0  0  0  0  0  0  0  0  0  0  0
    2.1434   -2.8875    0.0000 C   0  0  0  0  0  0  0  0  0  0  0  0
    1.3184   -2.8875    0.0000 O   0  0  0  0  0  0  0  0  0  0  0  0
    0.9059   -3.6020    0.0000 C   0  0  0  0  0  0  0  0  0  0  0  0
    1.3184   -4.3164    0.0000 C   0  0  0  0  0  0  0  0  0  0  0  0
    0.9059   -5.0309    0.0000 C   0  0  0  0  0  0  0  0  0  0  0  0
    0.0809   -5.0309    0.0000 C   0  0  0  0  0  0  0  0  0  0  0  0
   -0.3316   -4.3164    0.0000 C   0  0  0  0  0  0  0  0  0  0  0  0
    0.0809   -3.6020    0.0000 C   0  0  0  0  0  0  0  0  0  0  0  0
    3.3809   -2.1730    0.0000 N   0  0  0  0  0  0  0  0  0  0  0  0
    3.7934   -2.8875    0.0000 C   0  0  0  0  0  0  0  0  0  0  0  0
    4.6184   -2.8875    0.0000 C   0  0  0  0  0  0  0  0  0  0  0  0
    5.0309   -3.6020    0.0000 Cl  0  0  0  0  0  0  0  0  0  0  0  0
    3.7934   -1.4586    0.0000 C   0  0  0  0  0  0  0  0  0  0  0  0
    4.6184   -1.4586    0.0000 C   0  0  0  0  0  0  0  0  0  0  0  0
    5.0309   -0.7441    0.0000 C   0  0  0  0  0  0  0  0  0  0  0  0
    5.8559   -0.7441    0.0000 C   0  0  0  0  0  0  0  0  0  0  0  0
    6.2684   -1.4586    0.0000 C   0  0  0  0  0  0  0  0  0  0  0  0
    5.8559   -2.1730    0.0000 C   0  0  0  0  0  0  0  0  0  0  0  0
    5.0309   -2.1730    0.0000 C   0  0  0  0  0  0  0  0  0  0  0  0
  1  2  1  0  0  0  0
  2  3  1  0  0  0  0
  3  4  1  0  0  0  0
  4  5  1  0  0  0  0
  5  6  4  0  0  0  0
  6  7  4  0  0  0  0
  7  8  4  0  0  0  0
  8  9  4  0  0  0  0
  9 10  4  0  0  0  0
  5 10  4  0  0  0  0
  2 11  1  0  0  0  0
 11 12  1  0  0  0  0
 12 13  1  0  0  0  0
 13 14  1  0  0  0  0
 11 15  1  0  0  0  0
 15 16  1  0  0  0  0
 16 17  4  0  0  0  0
 17 18  4  0  0  0  0
 18 19  4  0  0  0  0
 19 20  4  0  0  0  0
 20 21  4  0  0  0  0
 16 21  4  0  0  0  0
M  END
>  <ID>
2136

>  <PREFERRED_NAME>
phenoxybenzamine

>  <CAS_RN>
59-96-1

>  <SYNONYMS>
phenoxybenzamine
phenoxybenzamine hydrochloride
dibenylin
dibenyline
dibenzyline
phenoxybenzamine HCl

>  <URL>
http://drugcentral.org/drugcard/2136/view

$$$$
