phenolsulfonphthalein
  -INDIGO-06102311092D

 25 28  0  0  0  0  0  0  0  0999 V2000
    1.1987    2.9842    0.0000 O   0  0  0  0  0  0  0  0  0  0  0  0
    0.8632    2.2305    0.0000 C   0  0  0  0  0  0  0  0  0  0  0  0
    1.3481    1.5631    0.0000 C   0  0  0  0  0  0  0  0  0  0  0  0
    1.0125    0.8094    0.0000 C   0  0  0  0  0  0  0  0  0  0  0  0
    0.1921    0.7232    0.0000 C   0  0  0  0  0  0  0  0  0  0  0  0
   -0.2929    1.3906    0.0000 C   0  0  0  0  0  0  0  0  0  0  0  0
    0.0427    2.1443    0.0000 C   0  0  0  0  0  0  0  0  0  0  0  0
   -0.1435   -0.0305    0.0000 C   0  0  0  0  0  0  0  0  0  0  0  0
   -0.6284   -0.6979    0.0000 O   0  0  0  0  0  0  0  0  0  0  0  0
   -0.1435   -1.3654    0.0000 S   0  0  0  0  0  0  0  0  0  0  0  0
   -0.8580   -1.7779    0.0000 O   0  0  0  0  0  0  0  0  0  0  0  0
    0.1921   -2.1191    0.0000 O   0  0  0  0  0  0  0  0  0  0  0  0
    0.6411   -1.1104    0.0000 C   0  0  0  0  0  0  0  0  0  0  0  0
    0.6411   -0.2854    0.0000 C   0  0  0  0  0  0  0  0  0  0  0  0
    1.3556    0.1271    0.0000 C   0  0  0  0  0  0  0  0  0  0  0  0
    2.0701   -0.2854    0.0000 C   0  0  0  0  0  0  0  0  0  0  0  0
    2.0701   -1.1104    0.0000 C   0  0  0  0  0  0  0  0  0  0  0  0
    1.3556   -1.5229    0.0000 C   0  0  0  0  0  0  0  0  0  0  0  0
   -0.8580    0.3820    0.0000 C   0  0  0  0  0  0  0  0  0  0  0  0
   -1.5724   -0.0305    0.0000 C   0  0  0  0  0  0  0  0  0  0  0  0
   -2.2869    0.3820    0.0000 C   0  0  0  0  0  0  0  0  0  0  0  0
   -2.2869    1.2070    0.0000 C   0  0  0  0  0  0  0  0  0  0  0  0
   -3.0014    1.6195    0.0000 O   0  0  0  0  0  0  0  0  0  0  0  0
   -1.5724    1.6195    0.0000 C   0  0  0  0  0  0  0  0  0  0  0  0
   -0.8580    1.2070    0.0000 C   0  0  0  0  0  0  0  0  0  0  0  0
  1  2  1  0  0  0  0
  2  3  4  0  0  0  0
  3  4  4  0  0  0  0
  4  5  4  0  0  0  0
  5  6  4  0  0  0  0
  6  7  4  0  0  0  0
  2  7  4  0  0  0  0
  5  8  1  0  0  0  0
  8  9  1  0  0  0  0
  9 10  1  0  0  0  0
 10 11  2  0  0  0  0
 10 12  2  0  0  0  0
 10 13  1  0  0  0  0
 13 14  4  0  0  0  0
  8 14  1  0  0  0  0
 14 15  4  0  0  0  0
 15 16  4  0  0  0  0
 16 17  4  0  0  0  0
 17 18  4  0  0  0  0
 13 18  4  0  0  0  0
  8 19  1  0  0  0  0
 19 20  4  0  0  0  0
 20 21  4  0  0  0  0
 21 22  4  0  0  0  0
 22 23  1  0  0  0  0
 22 24  4  0  0  0  0
 24 25  4  0  0  0  0
 19 25  4  0  0  0  0
M  END
>  <ID>
3439

>  <PREFERRED_NAME>
phenolsulfonphthalein

>  <CAS_RN>
143-74-8

>  <SYNONYMS>
phenolsulfonphthalein
fenolipuna
phenol red
phenolsulfonephthalein
phenolsulphonphthalein
sulfonphthal
sulphental
sulphonthal

>  <URL>
http://drugcentral.org/drugcard/3439/view

$$$$
