pidotimod
  -INDIGO-06102311032D

 16 17  0  0  1  0  0  0  0  0999 V2000
    0.7324   -0.2349    0.0000 O   0  0  0  0  0  0  0  0  0  0  0  0
    0.0179   -0.6474    0.0000 C   0  0  0  0  0  0  0  0  0  0  0  0
   -0.6965   -0.2349    0.0000 O   0  0  0  0  0  0  0  0  0  0  0  0
    0.0179   -1.4724    0.0000 C   0  0  2  0  0  0  0  0  0  0  0  0
    0.6854   -1.9573    0.0000 C   0  0  0  0  0  0  0  0  0  0  0  0
    0.4304   -2.7419    0.0000 S   0  0  0  0  0  0  0  0  0  0  0  0
   -0.3946   -2.7419    0.0000 C   0  0  0  0  0  0  0  0  0  0  0  0
   -0.6495   -1.9573    0.0000 N   0  0  0  0  0  0  0  0  0  0  0  0
   -1.4341   -1.7024    0.0000 C   0  0  0  0  0  0  0  0  0  0  0  0
   -1.6056   -0.8954    0.0000 O   0  0  0  0  0  0  0  0  0  0  0  0
   -2.0472   -2.2544    0.0000 C   0  0  2  0  0  0  0  0  0  0  0  0
   -1.9610   -3.0749    0.0000 C   0  0  0  0  0  0  0  0  0  0  0  0
   -2.7147   -3.4105    0.0000 C   0  0  0  0  0  0  0  0  0  0  0  0
   -3.2667   -2.7974    0.0000 C   0  0  0  0  0  0  0  0  0  0  0  0
   -4.0872   -2.8836    0.0000 O   0  0  0  0  0  0  0  0  0  0  0  0
   -2.8542   -2.0829    0.0000 N   0  0  0  0  0  0  0  0  0  0  0  0
  1  2  1  0  0  0  0
  2  3  2  0  0  0  0
  4  2  1  6  0  0  0
  4  5  1  0  0  0  0
  5  6  1  0  0  0  0
  6  7  1  0  0  0  0
  7  8  1  0  0  0  0
  4  8  1  0  0  0  0
  8  9  1  0  0  0  0
  9 10  2  0  0  0  0
 11  9  1  6  0  0  0
 11 12  1  0  0  0  0
 12 13  1  0  0  0  0
 13 14  1  0  0  0  0
 14 15  2  0  0  0  0
 14 16  1  0  0  0  0
 11 16  1  0  0  0  0
M  END
>  <ID>
2164

>  <PREFERRED_NAME>
pidotimod

>  <CAS_RN>
121808-62-6

>  <SYNONYMS>
pidotimod
adimod
pigitil
polimod

>  <URL>
http://drugcentral.org/drugcard/2164/view

$$$$
