pifarnine
  -INDIGO-06102311092D

 31 33  0  0  0  0  0  0  0  0999 V2000
    7.0714   -9.2021    0.0000 C   0  0  0  0  0  0  0  0  0  0  0  0
    6.3569   -8.7896    0.0000 C   0  0  0  0  0  0  0  0  0  0  0  0
    5.6424   -9.2021    0.0000 C   0  0  0  0  0  0  0  0  0  0  0  0
    6.3569   -7.9646    0.0000 C   0  0  0  0  0  0  0  0  0  0  0  0
    5.6424   -7.5521    0.0000 C   0  0  0  0  0  0  0  0  0  0  0  0
    5.6424   -6.7271    0.0000 C   0  0  0  0  0  0  0  0  0  0  0  0
    4.9279   -6.3146    0.0000 C   0  0  0  0  0  0  0  0  0  0  0  0
    4.2135   -6.7271    0.0000 C   0  0  0  0  0  0  0  0  0  0  0  0
    4.9279   -5.4896    0.0000 C   0  0  0  0  0  0  0  0  0  0  0  0
    4.2135   -5.0771    0.0000 C   0  0  0  0  0  0  0  0  0  0  0  0
    4.2135   -4.2521    0.0000 C   0  0  0  0  0  0  0  0  0  0  0  0
    3.4990   -3.8396    0.0000 C   0  0  0  0  0  0  0  0  0  0  0  0
    2.7845   -4.2521    0.0000 C   0  0  0  0  0  0  0  0  0  0  0  0
    3.4990   -3.0146    0.0000 C   0  0  0  0  0  0  0  0  0  0  0  0
    2.7845   -2.6021    0.0000 C   0  0  0  0  0  0  0  0  0  0  0  0
    2.7845   -1.7771    0.0000 N   0  0  0  0  0  0  0  0  0  0  0  0
    2.0701   -1.3646    0.0000 C   0  0  0  0  0  0  0  0  0  0  0  0
    2.0701   -0.5396    0.0000 C   0  0  0  0  0  0  0  0  0  0  0  0
    2.7845   -0.1271    0.0000 N   0  0  0  0  0  0  0  0  0  0  0  0
    2.7845    0.6979    0.0000 C   0  0  0  0  0  0  0  0  0  0  0  0
    2.0701    1.1104    0.0000 C   0  0  0  0  0  0  0  0  0  0  0  0
    1.3556    0.6979    0.0000 C   0  0  0  0  0  0  0  0  0  0  0  0
    0.6411    1.1104    0.0000 C   0  0  0  0  0  0  0  0  0  0  0  0
    0.6411    1.9354    0.0000 C   0  0  0  0  0  0  0  0  0  0  0  0
   -0.1435    2.1904    0.0000 O   0  0  0  0  0  0  0  0  0  0  0  0
   -0.6284    1.5229    0.0000 C   0  0  0  0  0  0  0  0  0  0  0  0
   -0.1435    0.8555    0.0000 O   0  0  0  0  0  0  0  0  0  0  0  0
    1.3556    2.3479    0.0000 C   0  0  0  0  0  0  0  0  0  0  0  0
    2.0701    1.9354    0.0000 C   0  0  0  0  0  0  0  0  0  0  0  0
    3.4990   -0.5396    0.0000 C   0  0  0  0  0  0  0  0  0  0  0  0
    3.4990   -1.3646    0.0000 C   0  0  0  0  0  0  0  0  0  0  0  0
  1  2  1  0  0  0  0
  2  3  1  0  0  0  0
  2  4  2  0  0  0  0
  4  5  1  0  0  0  0
  5  6  1  0  0  0  0
  6  7  1  0  0  0  0
  7  8  1  0  0  0  0
  7  9  2  0  0  0  0
  9 10  1  4  0  0  0
 10 11  1  0  0  0  0
 11 12  1  0  0  0  0
 12 13  1  0  0  0  0
 12 14  2  0  0  0  0
 14 15  1  4  0  0  0
 15 16  1  0  0  0  0
 16 17  1  0  0  0  0
 17 18  1  0  0  0  0
 18 19  1  0  0  0  0
 19 20  1  0  0  0  0
 20 21  1  0  0  0  0
 21 22  4  0  0  0  0
 22 23  4  0  0  0  0
 23 24  4  0  0  0  0
 24 25  1  0  0  0  0
 25 26  1  0  0  0  0
 26 27  1  0  0  0  0
 23 27  1  0  0  0  0
 24 28  4  0  0  0  0
 28 29  4  0  0  0  0
 21 29  4  0  0  0  0
 19 30  1  0  0  0  0
 30 31  1  0  0  0  0
 16 31  1  0  0  0  0
M  END
>  <ID>
3470

>  <PREFERRED_NAME>
pifarnine

>  <CAS_RN>
56208-01-6

>  <SYNONYMS>
pifarnine
U-27
pifazin

>  <URL>
http://drugcentral.org/drugcard/3470/view

$$$$
