pimecrolimus
  -INDIGO-06102311032D

 56 59  0  0  1  0  0  0  0  0999 V2000
   13.9318    1.8897    0.0000 C   0  0  0  0  0  0  0  0  0  0  0  0
   14.0733    1.0769    0.0000 C   0  0  0  0  0  0  0  0  0  0  0  0
   13.4402    0.5479    0.0000 C   0  0  2  0  0  0  0  0  0  0  0  0
   13.6143   -0.3379    0.0000 C   0  0  0  0  0  0  0  0  0  0  0  0
   14.2521   -0.8612    0.0000 C   0  0  0  0  0  0  0  0  0  0  0  0
   15.0504   -0.6528    0.0000 C   0  0  0  0  0  0  0  0  0  0  0  0
   13.9515   -1.6295    0.0000 C   0  0  0  0  0  0  0  0  0  0  0  0
   13.1280   -1.5810    0.0000 C   0  0  2  0  0  0  0  0  0  0  0  0
   12.8952   -0.7895    0.0000 C   0  0  0  0  0  0  0  0  0  0  0  0
   12.3989   -2.1135    0.0000 C   0  0  0  0  0  0  0  0  0  0  0  0
   11.6306   -1.8129    0.0000 C   0  0  2  0  0  0  0  0  0  0  0  0
   11.7544   -2.6286    0.0000 O   0  0  0  0  0  0  0  0  0  0  0  0
   12.5227   -2.9291    0.0000 C   0  0  0  0  0  0  0  0  0  0  0  0
   10.9862   -2.3280    0.0000 C   0  0  1  0  0  0  0  0  0  0  0  0
   10.2179   -2.0274    0.0000 O   0  0  0  0  0  0  0  0  0  0  0  0
    9.5734   -2.5424    0.0000 C   0  0  2  0  0  0  0  0  0  0  0  0
    8.9289   -3.0575    0.0000 O   0  0  0  0  0  0  0  0  0  0  0  0
    9.6972   -3.3581    0.0000 C   0  0  2  0  0  0  0  0  0  0  0  0
    9.0528   -3.8731    0.0000 C   0  0  0  0  0  0  0  0  0  0  0  0
   10.4655   -3.6587    0.0000 C   0  0  0  0  0  0  0  0  0  0  0  0
   11.1100   -3.1436    0.0000 C   0  0  2  0  0  0  0  0  0  0  0  0
   11.8783   -3.4442    0.0000 O   0  0  0  0  0  0  0  0  0  0  0  0
   12.0021   -4.2599    0.0000 C   0  0  0  0  0  0  0  0  0  0  0  0
    8.8051   -2.2418    0.0000 C   0  0  0  0  0  0  0  0  0  0  0  0
    8.1606   -2.7569    0.0000 O   0  0  0  0  0  0  0  0  0  0  0  0
    8.6813   -1.4262    0.0000 C   0  0  0  0  0  0  0  0  0  0  0  0
    9.3258   -0.9111    0.0000 O   0  0  0  0  0  0  0  0  0  0  0  0
    7.9130   -1.1256    0.0000 N   0  0  0  0  0  0  0  0  0  0  0  0
    7.2685   -1.6407    0.0000 C   0  0  0  0  0  0  0  0  0  0  0  0
    6.5002   -1.3401    0.0000 C   0  0  0  0  0  0  0  0  0  0  0  0
    6.3764   -0.5244    0.0000 C   0  0  0  0  0  0  0  0  0  0  0  0
    7.0209   -0.0093    0.0000 C   0  0  0  0  0  0  0  0  0  0  0  0
    7.7892   -0.3099    0.0000 C   0  0  1  0  0  0  0  0  0  0  0  0
    8.4336    0.2051    0.0000 C   0  0  0  0  0  0  0  0  0  0  0  0
    8.3098    1.0208    0.0000 O   0  0  0  0  0  0  0  0  0  0  0  0
    9.2019   -0.0955    0.0000 O   0  0  0  0  0  0  0  0  0  0  0  0
    9.8464    0.4196    0.0000 C   0  0  1  0  0  0  0  0  0  0  0  0
   10.6147    0.1190    0.0000 C   0  0  2  0  0  0  0  0  0  0  0  0
   10.7385   -0.6967    0.0000 C   0  0  0  0  0  0  0  0  0  0  0  0
   11.2592    0.6341    0.0000 C   0  0  1  0  0  0  0  0  0  0  0  0
   11.1353    1.4497    0.0000 O   0  0  0  0  0  0  0  0  0  0  0  0
   12.0274    0.3335    0.0000 C   0  0  0  0  0  0  0  0  0  0  0  0
   12.6719    0.8485    0.0000 C   0  0  0  0  0  0  0  0  0  0  0  0
   12.5481    1.6642    0.0000 O   0  0  0  0  0  0  0  0  0  0  0  0
    9.7226    1.2353    0.0000 C   0  0  0  0  0  0  0  0  0  0  0  0
   10.3670    1.7503    0.0000 C   0  0  0  0  0  0  0  0  0  0  0  0
    8.9543    1.5358    0.0000 C   0  0  0  0  0  0  0  0  0  0  0  0
    8.8305    2.3515    0.0000 C   0  0  2  0  0  0  0  0  0  0  0  0
    8.0622    2.6521    0.0000 C   0  0  0  0  0  0  0  0  0  0  0  0
    7.9383    3.4677    0.0000 C   0  0  0  0  0  0  0  0  0  0  0  0
    8.5828    3.9828    0.0000 C   0  0  2  0  0  0  0  0  0  0  0  0
    8.4590    4.7985    0.0000 Cl  0  0  0  0  0  0  0  0  0  0  0  0
    9.3511    3.6822    0.0000 C   0  0  1  0  0  0  0  0  0  0  0  0
    9.4749    2.8666    0.0000 C   0  0  0  0  0  0  0  0  0  0  0  0
    9.9956    4.1973    0.0000 O   0  0  0  0  0  0  0  0  0  0  0  0
   10.7639    3.8967    0.0000 C   0  0  0  0  0  0  0  0  0  0  0  0
  1  2  1  0  0  0  0
  3  2  1  6  0  0  0
  3  4  1  0  0  0  0
  4  5  2  0  0  0  0
  5  6  1  0  0  0  0
  5  7  1  0  0  0  0
  7  8  1  0  0  0  0
  8  9  1  1  0  0  0
  8 10  1  0  0  0  0
 10 11  1  0  0  0  0
 11 12  1  1  0  0  0
 12 13  1  0  0  0  0
 11 14  1  0  0  0  0
 14 15  1  6  0  0  0
 15 16  1  0  0  0  0
 16 17  1  1  0  0  0
 16 18  1  0  0  0  0
 18 19  1  1  0  0  0
 18 20  1  0  0  0  0
 20 21  1  0  0  0  0
 14 21  1  0  0  0  0
 21 22  1  1  0  0  0
 22 23  1  0  0  0  0
 16 24  1  0  0  0  0
 24 25  2  0  0  0  0
 24 26  1  0  0  0  0
 26 27  2  0  0  0  0
 26 28  1  0  0  0  0
 28 29  1  0  0  0  0
 29 30  1  0  0  0  0
 30 31  1  0  0  0  0
 31 32  1  0  0  0  0
 32 33  1  0  0  0  0
 33 28  1  1  0  0  0
 33 34  1  0  0  0  0
 34 35  2  0  0  0  0
 34 36  1  0  0  0  0
 36 37  1  0  0  0  0
 37 38  1  0  0  0  0
 38 39  1  1  0  0  0
 38 40  1  0  0  0  0
 40 41  1  1  0  0  0
 40 42  1  0  0  0  0
 42 43  1  0  0  0  0
  3 43  1  0  0  0  0
 43 44  2  0  0  0  0
 37 45  1  6  0  0  0
 45 46  1  0  0  0  0
 45 47  2  0  0  0  0
 48 47  1  6  0  0  0
 48 49  1  0  0  0  0
 49 50  1  0  0  0  0
 50 51  1  0  0  0  0
 51 52  1  6  0  0  0
 51 53  1  0  0  0  0
 53 54  1  0  0  0  0
 48 54  1  0  0  0  0
 53 55  1  6  0  0  0
 55 56  1  0  0  0  0
M  END
>  <ID>
2168

>  <PREFERRED_NAME>
pimecrolimus

>  <CAS_RN>
137071-32-0

>  <SYNONYMS>
pimecrolimus
elidel
picrolimus

>  <URL>
http://drugcentral.org/drugcard/2168/view

$$$$
