pipoxolan
  -INDIGO-06102311032D

 26 29  0  0  0  0  0  0  0  0999 V2000
   -1.0821   -1.3771    0.0000 O   0  0  0  0  0  0  0  0  0  0  0  0
   -0.2975   -1.6320    0.0000 C   0  0  0  0  0  0  0  0  0  0  0  0
   -0.0425   -2.4167    0.0000 O   0  0  0  0  0  0  0  0  0  0  0  0
    0.7825   -2.4167    0.0000 C   0  0  0  0  0  0  0  0  0  0  0  0
    1.2674   -3.0841    0.0000 C   0  0  0  0  0  0  0  0  0  0  0  0
    0.9318   -3.8378    0.0000 C   0  0  0  0  0  0  0  0  0  0  0  0
    1.4167   -4.5052    0.0000 N   0  0  0  0  0  0  0  0  0  0  0  0
    2.2372   -4.4190    0.0000 C   0  0  0  0  0  0  0  0  0  0  0  0
    2.7222   -5.0864    0.0000 C   0  0  0  0  0  0  0  0  0  0  0  0
    2.3866   -5.8401    0.0000 C   0  0  0  0  0  0  0  0  0  0  0  0
    1.5661   -5.9263    0.0000 C   0  0  0  0  0  0  0  0  0  0  0  0
    1.0812   -5.2589    0.0000 C   0  0  0  0  0  0  0  0  0  0  0  0
    1.0374   -1.6320    0.0000 O   0  0  0  0  0  0  0  0  0  0  0  0
    0.3700   -1.1471    0.0000 C   0  0  0  0  0  0  0  0  0  0  0  0
    0.9772   -0.5887    0.0000 C   0  0  0  0  0  0  0  0  0  0  0  0
    0.7973    0.2164    0.0000 C   0  0  0  0  0  0  0  0  0  0  0  0
    1.4046    0.7749    0.0000 C   0  0  0  0  0  0  0  0  0  0  0  0
    2.1918    0.5281    0.0000 C   0  0  0  0  0  0  0  0  0  0  0  0
    2.3718   -0.2770    0.0000 C   0  0  0  0  0  0  0  0  0  0  0  0
    1.7645   -0.8354    0.0000 C   0  0  0  0  0  0  0  0  0  0  0  0
   -0.0350   -0.4284    0.0000 C   0  0  0  0  0  0  0  0  0  0  0  0
   -0.8600   -0.4197    0.0000 C   0  0  0  0  0  0  0  0  0  0  0  0
   -1.2650    0.2990    0.0000 C   0  0  0  0  0  0  0  0  0  0  0  0
   -0.8450    1.0091    0.0000 C   0  0  0  0  0  0  0  0  0  0  0  0
   -0.0201    1.0005    0.0000 C   0  0  0  0  0  0  0  0  0  0  0  0
    0.3849    0.2817    0.0000 C   0  0  0  0  0  0  0  0  0  0  0  0
  1  2  2  0  0  0  0
  2  3  1  0  0  0  0
  3  4  1  0  0  0  0
  4  5  1  0  0  0  0
  5  6  1  0  0  0  0
  6  7  1  0  0  0  0
  7  8  1  0  0  0  0
  8  9  1  0  0  0  0
  9 10  1  0  0  0  0
 10 11  1  0  0  0  0
 11 12  1  0  0  0  0
  7 12  1  0  0  0  0
  4 13  1  0  0  0  0
 13 14  1  0  0  0  0
  2 14  1  0  0  0  0
 14 15  1  0  0  0  0
 15 16  4  0  0  0  0
 16 17  4  0  0  0  0
 17 18  4  0  0  0  0
 18 19  4  0  0  0  0
 19 20  4  0  0  0  0
 15 20  4  0  0  0  0
 14 21  1  0  0  0  0
 21 22  4  0  0  0  0
 22 23  4  0  0  0  0
 23 24  4  0  0  0  0
 24 25  4  0  0  0  0
 25 26  4  0  0  0  0
 21 26  4  0  0  0  0
M  END
>  <ID>
2194

>  <PREFERRED_NAME>
pipoxolan

>  <CAS_RN>
23744-24-3

>  <SYNONYMS>
pipoxolan

>  <URL>
http://drugcentral.org/drugcard/2194/view

$$$$
