pipotiazine palmitate
  -INDIGO-06102311032D

 49 52  0  0  0  0  0  0  0  0999 V2000
   17.1473   -1.6500    0.0000 C   0  0  0  0  0  0  0  0  0  0  0  0
   17.8618   -2.0625    0.0000 C   0  0  0  0  0  0  0  0  0  0  0  0
   18.5762   -1.6500    0.0000 C   0  0  0  0  0  0  0  0  0  0  0  0
   19.2907   -2.0625    0.0000 C   0  0  0  0  0  0  0  0  0  0  0  0
   20.0052   -1.6500    0.0000 C   0  0  0  0  0  0  0  0  0  0  0  0
   20.7197   -2.0625    0.0000 C   0  0  0  0  0  0  0  0  0  0  0  0
   21.4341   -1.6500    0.0000 C   0  0  0  0  0  0  0  0  0  0  0  0
   22.1486   -2.0625    0.0000 C   0  0  0  0  0  0  0  0  0  0  0  0
   22.8631   -1.6500    0.0000 C   0  0  0  0  0  0  0  0  0  0  0  0
   23.5775   -2.0625    0.0000 C   0  0  0  0  0  0  0  0  0  0  0  0
   24.2920   -1.6500    0.0000 C   0  0  0  0  0  0  0  0  0  0  0  0
   25.0065   -2.0625    0.0000 C   0  0  0  0  0  0  0  0  0  0  0  0
   25.7210   -1.6500    0.0000 C   0  0  0  0  0  0  0  0  0  0  0  0
   26.4354   -2.0625    0.0000 C   0  0  0  0  0  0  0  0  0  0  0  0
   27.1499   -1.6500    0.0000 C   0  0  0  0  0  0  0  0  0  0  0  0
   27.8644   -2.0625    0.0000 C   0  0  0  0  0  0  0  0  0  0  0  0
   27.8644   -2.8875    0.0000 O   0  0  0  0  0  0  0  0  0  0  0  0
   28.5788   -1.6500    0.0000 O   0  0  0  0  0  0  0  0  0  0  0  0
   29.2933   -2.0625    0.0000 C   0  0  0  0  0  0  0  0  0  0  0  0
   30.0078   -1.6500    0.0000 C   0  0  0  0  0  0  0  0  0  0  0  0
   30.7223   -2.0625    0.0000 C   0  0  0  0  0  0  0  0  0  0  0  0
   31.4367   -1.6500    0.0000 C   0  0  0  0  0  0  0  0  0  0  0  0
   32.1512   -2.0625    0.0000 C   0  0  0  0  0  0  0  0  0  0  0  0
   32.1512   -2.8875    0.0000 N   0  0  0  0  0  0  0  0  0  0  0  0
   32.8657   -3.3000    0.0000 C   0  0  0  0  0  0  0  0  0  0  0  0
   33.5801   -2.8875    0.0000 C   0  0  0  0  0  0  0  0  0  0  0  0
   34.2946   -3.3000    0.0000 C   0  0  0  0  0  0  0  0  0  0  0  0
   35.0091   -2.8875    0.0000 N   0  0  0  0  0  0  0  0  0  0  0  0
   35.0091   -2.0625    0.0000 C   0  0  0  0  0  0  0  0  0  0  0  0
   34.2946   -1.6500    0.0000 C   0  0  0  0  0  0  0  0  0  0  0  0
   34.2946   -0.8250    0.0000 C   0  0  0  0  0  0  0  0  0  0  0  0
   35.0091   -0.4125    0.0000 C   0  0  0  0  0  0  0  0  0  0  0  0
   35.7235   -0.8250    0.0000 C   0  0  0  0  0  0  0  0  0  0  0  0
   35.7235   -1.6500    0.0000 C   0  0  0  0  0  0  0  0  0  0  0  0
   36.4380   -2.0625    0.0000 S   0  0  0  0  0  0  0  0  0  0  0  0
   36.4380   -2.8875    0.0000 C   0  0  0  0  0  0  0  0  0  0  0  0
   37.1525   -3.3000    0.0000 C   0  0  0  0  0  0  0  0  0  0  0  0
   37.1525   -4.1250    0.0000 C   0  0  0  0  0  0  0  0  0  0  0  0
   36.4380   -4.5375    0.0000 C   0  0  0  0  0  0  0  0  0  0  0  0
   35.7235   -4.1250    0.0000 C   0  0  0  0  0  0  0  0  0  0  0  0
   35.7235   -3.3000    0.0000 C   0  0  0  0  0  0  0  0  0  0  0  0
   36.4380   -5.3625    0.0000 S   0  0  0  0  0  0  0  0  0  0  0  0
   35.6130   -5.3625    0.0000 O   0  0  0  0  0  0  0  0  0  0  0  0
   37.2630   -5.3625    0.0000 O   0  0  0  0  0  0  0  0  0  0  0  0
   36.4380   -6.1875    0.0000 N   0  0  0  0  0  0  0  0  0  0  0  0
   37.1525   -6.6000    0.0000 C   0  0  0  0  0  0  0  0  0  0  0  0
   35.7235   -6.6000    0.0000 C   0  0  0  0  0  0  0  0  0  0  0  0
   31.4367   -3.3000    0.0000 C   0  0  0  0  0  0  0  0  0  0  0  0
   30.7223   -2.8875    0.0000 C   0  0  0  0  0  0  0  0  0  0  0  0
  1  2  1  0  0  0  0
  2  3  1  0  0  0  0
  3  4  1  0  0  0  0
  4  5  1  0  0  0  0
  5  6  1  0  0  0  0
  6  7  1  0  0  0  0
  7  8  1  0  0  0  0
  8  9  1  0  0  0  0
  9 10  1  0  0  0  0
 10 11  1  0  0  0  0
 11 12  1  0  0  0  0
 12 13  1  0  0  0  0
 13 14  1  0  0  0  0
 14 15  1  0  0  0  0
 15 16  1  0  0  0  0
 16 17  2  0  0  0  0
 16 18  1  0  0  0  0
 18 19  1  0  0  0  0
 19 20  1  0  0  0  0
 20 21  1  0  0  0  0
 21 22  1  0  0  0  0
 22 23  1  0  0  0  0
 23 24  1  0  0  0  0
 24 25  1  0  0  0  0
 25 26  1  0  0  0  0
 26 27  1  0  0  0  0
 27 28  1  0  0  0  0
 28 29  1  0  0  0  0
 29 30  4  0  0  0  0
 30 31  4  0  0  0  0
 31 32  4  0  0  0  0
 32 33  4  0  0  0  0
 33 34  4  0  0  0  0
 29 34  4  0  0  0  0
 34 35  1  0  0  0  0
 35 36  1  0  0  0  0
 36 37  4  0  0  0  0
 37 38  4  0  0  0  0
 38 39  4  0  0  0  0
 39 40  4  0  0  0  0
 40 41  4  0  0  0  0
 28 41  1  0  0  0  0
 36 41  4  0  0  0  0
 39 42  1  0  0  0  0
 42 43  2  0  0  0  0
 42 44  2  0  0  0  0
 42 45  1  0  0  0  0
 45 46  1  0  0  0  0
 45 47  1  0  0  0  0
 24 48  1  0  0  0  0
 48 49  1  0  0  0  0
 21 49  1  0  0  0  0
M  END
>  <ID>
2193

>  <PREFERRED_NAME>
pipotiazine palmitate

>  <CAS_RN>
37517-26-3

>  <SYNONYMS>
pipotiazine palmitate
piportil
piportil depot

>  <URL>
http://drugcentral.org/drugcard/2193/view

$$$$
