pivampicillin
  -INDIGO-06102311032D

 32 34  0  0  1  0  0  0  0  0999 V2000
    4.7773   -3.2949    0.0000 C   0  0  0  0  0  0  0  0  0  0  0  0
    3.9704   -3.1234    0.0000 C   0  0  0  0  0  0  0  0  0  0  0  0
    4.1419   -2.3164    0.0000 C   0  0  0  0  0  0  0  0  0  0  0  0
    3.7988   -3.9304    0.0000 C   0  0  0  0  0  0  0  0  0  0  0  0
    3.1634   -2.9519    0.0000 C   0  0  0  0  0  0  0  0  0  0  0  0
    2.6113   -3.5650    0.0000 O   0  0  0  0  0  0  0  0  0  0  0  0
    2.9084   -2.1672    0.0000 O   0  0  0  0  0  0  0  0  0  0  0  0
    2.1015   -1.9957    0.0000 C   0  0  0  0  0  0  0  0  0  0  0  0
    1.8465   -1.2111    0.0000 O   0  0  0  0  0  0  0  0  0  0  0  0
    1.0396   -1.0396    0.0000 C   0  0  0  0  0  0  0  0  0  0  0  0
    0.4875   -1.6527    0.0000 O   0  0  0  0  0  0  0  0  0  0  0  0
    0.7846   -0.2549    0.0000 C   0  0  2  0  0  0  0  0  0  0  0  0
    0.0000    0.0000    0.0000 N   0  0  0  0  0  0  0  0  0  0  0  0
    0.0000    0.8250    0.0000 C   0  0  2  0  0  0  0  0  0  0  0  0
    0.7846    1.0799    0.0000 S   0  0  0  0  0  0  0  0  0  0  0  0
    1.2695    0.4125    0.0000 C   0  0  0  0  0  0  0  0  0  0  0  0
    1.9883    0.8175    0.0000 C   0  0  0  0  0  0  0  0  0  0  0  0
    1.9883    0.0075    0.0000 C   0  0  0  0  0  0  0  0  0  0  0  0
   -0.8250    0.8250    0.0000 C   0  0  2  0  0  0  0  0  0  0  0  0
   -1.4084    1.4084    0.0000 N   0  0  0  0  0  0  0  0  0  0  0  0
   -1.1948    2.2053    0.0000 C   0  0  0  0  0  0  0  0  0  0  0  0
   -0.3979    2.4188    0.0000 O   0  0  0  0  0  0  0  0  0  0  0  0
   -1.7782    2.7886    0.0000 C   0  0  2  0  0  0  0  0  0  0  0  0
   -2.5751    2.5751    0.0000 N   0  0  0  0  0  0  0  0  0  0  0  0
   -1.5647    3.5855    0.0000 C   0  0  0  0  0  0  0  0  0  0  0  0
   -2.1480    4.1689    0.0000 C   0  0  0  0  0  0  0  0  0  0  0  0
   -1.9345    4.9658    0.0000 C   0  0  0  0  0  0  0  0  0  0  0  0
   -1.1376    5.1793    0.0000 C   0  0  0  0  0  0  0  0  0  0  0  0
   -0.5543    4.5959    0.0000 C   0  0  0  0  0  0  0  0  0  0  0  0
   -0.7678    3.7990    0.0000 C   0  0  0  0  0  0  0  0  0  0  0  0
   -0.8250    0.0000    0.0000 C   0  0  0  0  0  0  0  0  0  0  0  0
   -1.4084   -0.5834    0.0000 O   0  0  0  0  0  0  0  0  0  0  0  0
  1  2  1  0  0  0  0
  2  3  1  0  0  0  0
  2  4  1  0  0  0  0
  2  5  1  0  0  0  0
  5  6  2  0  0  0  0
  5  7  1  0  0  0  0
  7  8  1  0  0  0  0
  8  9  1  0  0  0  0
  9 10  1  0  0  0  0
 10 11  2  0  0  0  0
 12 10  1  6  0  0  0
 12 13  1  0  0  0  0
 14 13  1  1  0  0  0
 14 15  1  0  0  0  0
 15 16  1  0  0  0  0
 12 16  1  0  0  0  0
 16 17  1  0  0  0  0
 16 18  1  0  0  0  0
 14 19  1  0  0  0  0
 19 20  1  1  0  0  0
 20 21  1  0  0  0  0
 21 22  2  0  0  0  0
 21 23  1  0  0  0  0
 23 24  1  6  0  0  0
 23 25  1  0  0  0  0
 25 26  4  0  0  0  0
 26 27  4  0  0  0  0
 27 28  4  0  0  0  0
 28 29  4  0  0  0  0
 29 30  4  0  0  0  0
 25 30  4  0  0  0  0
 19 31  1  0  0  0  0
 13 31  1  0  0  0  0
 31 32  2  0  0  0  0
M  END
>  <ID>
2218

>  <PREFERRED_NAME>
pivampicillin

>  <CAS_RN>
33817-20-8

>  <SYNONYMS>
pivampicillin
pivaloylampicillin
pivaloyloxymethyl ampicillinate
ampicillin pivaloyloxymethyl ester

>  <URL>
http://drugcentral.org/drugcard/2218/view

$$$$
