pivmecillinam
  -INDIGO-06102311032D

 30 32  0  0  1  0  0  0  0  0999 V2000
    5.9426   -6.9603    0.0000 C   0  0  0  0  0  0  0  0  0  0  0  0
    5.1357   -6.7888    0.0000 C   0  0  0  0  0  0  0  0  0  0  0  0
    5.3072   -5.9818    0.0000 C   0  0  0  0  0  0  0  0  0  0  0  0
    4.9641   -7.5957    0.0000 C   0  0  0  0  0  0  0  0  0  0  0  0
    4.3287   -6.6172    0.0000 C   0  0  0  0  0  0  0  0  0  0  0  0
    3.7767   -7.2303    0.0000 O   0  0  0  0  0  0  0  0  0  0  0  0
    4.0738   -5.8326    0.0000 O   0  0  0  0  0  0  0  0  0  0  0  0
    3.2668   -5.6611    0.0000 C   0  0  0  0  0  0  0  0  0  0  0  0
    3.0118   -4.8765    0.0000 O   0  0  0  0  0  0  0  0  0  0  0  0
    2.2049   -4.7050    0.0000 C   0  0  0  0  0  0  0  0  0  0  0  0
    1.6528   -5.3180    0.0000 O   0  0  0  0  0  0  0  0  0  0  0  0
    1.9499   -3.9203    0.0000 C   0  0  2  0  0  0  0  0  0  0  0  0
    1.1653   -3.6654    0.0000 N   0  0  0  0  0  0  0  0  0  0  0  0
    1.1653   -2.8404    0.0000 C   0  0  2  0  0  0  0  0  0  0  0  0
    1.9499   -2.5855    0.0000 S   0  0  0  0  0  0  0  0  0  0  0  0
    2.4349   -3.2529    0.0000 C   0  0  0  0  0  0  0  0  0  0  0  0
    3.1536   -2.8479    0.0000 C   0  0  0  0  0  0  0  0  0  0  0  0
    3.1536   -3.6579    0.0000 C   0  0  0  0  0  0  0  0  0  0  0  0
    0.3403   -2.8404    0.0000 C   0  0  2  0  0  0  0  0  0  0  0  0
   -0.2431   -2.2570    0.0000 N   0  0  0  0  0  0  0  0  0  0  0  0
   -1.0399   -2.4706    0.0000 C   0  0  0  0  0  0  0  0  0  0  0  0
   -1.6233   -1.8872    0.0000 N   0  0  0  0  0  0  0  0  0  0  0  0
   -2.4020   -2.1597    0.0000 C   0  0  0  0  0  0  0  0  0  0  0  0
   -3.1006   -1.7207    0.0000 C   0  0  0  0  0  0  0  0  0  0  0  0
   -3.1929   -0.9009    0.0000 C   0  0  0  0  0  0  0  0  0  0  0  0
   -2.6096   -0.3176    0.0000 C   0  0  0  0  0  0  0  0  0  0  0  0
   -1.7898   -0.4099    0.0000 C   0  0  0  0  0  0  0  0  0  0  0  0
   -1.3508   -1.1085    0.0000 C   0  0  0  0  0  0  0  0  0  0  0  0
    0.3403   -3.6654    0.0000 C   0  0  0  0  0  0  0  0  0  0  0  0
   -0.2431   -4.2488    0.0000 O   0  0  0  0  0  0  0  0  0  0  0  0
  1  2  1  0  0  0  0
  2  3  1  0  0  0  0
  2  4  1  0  0  0  0
  2  5  1  0  0  0  0
  5  6  2  0  0  0  0
  5  7  1  0  0  0  0
  7  8  1  0  0  0  0
  8  9  1  0  0  0  0
  9 10  1  0  0  0  0
 10 11  2  0  0  0  0
 12 10  1  6  0  0  0
 12 13  1  0  0  0  0
 14 13  1  1  0  0  0
 14 15  1  0  0  0  0
 15 16  1  0  0  0  0
 12 16  1  0  0  0  0
 16 17  1  0  0  0  0
 16 18  1  0  0  0  0
 14 19  1  0  0  0  0
 19 20  1  1  0  0  0
 20 21  2  0  0  0  0
 21 22  1  0  0  0  0
 22 23  1  0  0  0  0
 23 24  1  0  0  0  0
 24 25  1  0  0  0  0
 25 26  1  0  0  0  0
 26 27  1  0  0  0  0
 27 28  1  0  0  0  0
 22 28  1  0  0  0  0
 19 29  1  0  0  0  0
 13 29  1  0  0  0  0
 29 30  2  0  0  0  0
M  END
>  <ID>
2219

>  <PREFERRED_NAME>
pivmecillinam

>  <CAS_RN>
32886-97-8

>  <SYNONYMS>
pivmecillinam
amdinocillin pivoxil
pivamdinocillin
pivmecillinam hydrochloride
pivmecillinam HCl

>  <URL>
http://drugcentral.org/drugcard/2219/view

$$$$
