ponesimod
  -INDIGO-06102311212D

 31 33  0  0  1  0  0  0  0  0999 V2000
   -4.7177   -8.0472    0.0000 C   0  0  0  0  0  0  0  0  0  0  0  0
   -5.2026   -7.3797    0.0000 C   0  0  0  0  0  0  0  0  0  0  0  0
   -4.8670   -6.6260    0.0000 C   0  0  0  0  0  0  0  0  0  0  0  0
   -5.3519   -5.9586    0.0000 N   0  0  0  0  0  0  0  0  0  0  0  0
   -5.0164   -5.2049    0.0000 C   0  0  0  0  0  0  0  0  0  0  0  0
   -5.4289   -4.4905    0.0000 N   0  0  0  0  0  0  0  0  0  0  0  0
   -4.8768   -3.8774    0.0000 C   0  0  0  0  0  0  0  0  0  0  0  0
   -5.0484   -3.0704    0.0000 O   0  0  0  0  0  0  0  0  0  0  0  0
   -4.1232   -4.2129    0.0000 C   0  0  0  0  0  0  0  0  0  0  0  0
   -3.4087   -3.8004    0.0000 C   0  0  0  0  0  0  0  0  0  0  0  0
   -2.6942   -4.2129    0.0000 C   0  0  0  0  0  0  0  0  0  0  0  0
   -1.9798   -3.8004    0.0000 C   0  0  0  0  0  0  0  0  0  0  0  0
   -1.2653   -4.2129    0.0000 C   0  0  0  0  0  0  0  0  0  0  0  0
   -1.2653   -5.0379    0.0000 C   0  0  0  0  0  0  0  0  0  0  0  0
   -1.9798   -5.4504    0.0000 C   0  0  0  0  0  0  0  0  0  0  0  0
   -2.6942   -5.0379    0.0000 C   0  0  0  0  0  0  0  0  0  0  0  0
   -0.5508   -5.4504    0.0000 O   0  0  0  0  0  0  0  0  0  0  0  0
   -0.5508   -6.2754    0.0000 C   0  0  0  0  0  0  0  0  0  0  0  0
    0.1637   -6.6879    0.0000 C   0  0  1  0  0  0  0  0  0  0  0  0
    0.8781   -6.2754    0.0000 C   0  0  0  0  0  0  0  0  0  0  0  0
    0.8781   -5.4504    0.0000 O   0  0  0  0  0  0  0  0  0  0  0  0
    0.1637   -7.5129    0.0000 O   0  0  0  0  0  0  0  0  0  0  0  0
   -0.5508   -3.8004    0.0000 Cl  0  0  0  0  0  0  0  0  0  0  0  0
   -4.2094   -5.0334    0.0000 S   0  0  0  0  0  0  0  0  0  0  0  0
   -6.2494   -4.4042    0.0000 C   0  0  0  0  0  0  0  0  0  0  0  0
   -6.7343   -5.0717    0.0000 C   0  0  0  0  0  0  0  0  0  0  0  0
   -7.5548   -4.9854    0.0000 C   0  0  0  0  0  0  0  0  0  0  0  0
   -7.8903   -4.2317    0.0000 C   0  0  0  0  0  0  0  0  0  0  0  0
   -7.4054   -3.5643    0.0000 C   0  0  0  0  0  0  0  0  0  0  0  0
   -6.5849   -3.6505    0.0000 C   0  0  0  0  0  0  0  0  0  0  0  0
   -6.1000   -2.9831    0.0000 C   0  0  0  0  0  0  0  0  0  0  0  0
  1  2  1  0  0  0  0
  2  3  1  0  0  0  0
  4  3  1  4  0  0  0
  4  5  2  0  0  0  0
  5  6  1  0  0  0  0
  6  7  1  0  0  0  0
  7  8  2  0  0  0  0
  7  9  1  0  0  0  0
  9 10  2  0  0  0  0
 10 11  1  0  0  0  0
 11 12  4  0  0  0  0
 12 13  4  0  0  0  0
 13 14  4  0  0  0  0
 14 15  4  0  0  0  0
 15 16  4  0  0  0  0
 11 16  4  0  0  0  0
 14 17  1  0  0  0  0
 17 18  1  0  0  0  0
 18 19  1  0  0  0  0
 19 20  1  0  0  0  0
 20 21  1  0  0  0  0
 19 22  1  1  0  0  0
 13 23  1  0  0  0  0
  9 24  1  0  0  0  0
  5 24  1  0  0  0  0
  6 25  1  0  0  0  0
 25 26  4  0  0  0  0
 26 27  4  0  0  0  0
 27 28  4  0  0  0  0
 28 29  4  0  0  0  0
 29 30  4  0  0  0  0
 25 30  4  0  0  0  0
 30 31  1  0  0  0  0
M  END
>  <ID>
5446

>  <PREFERRED_NAME>
ponesimod

>  <CAS_RN>
854107-55-4

>  <SYNONYMS>
ponesimod
ponvory
ACT-128800

>  <URL>
http://drugcentral.org/drugcard/5446/view

$$$$
