prednisolone sulfobenzoate
  -INDIGO-06102311042D

 38 42  0  0  1  0  0  0  0  0999 V2000
    3.5330   -3.2587    0.0000 C   0  0  0  0  0  0  0  0  0  0  0  0
    3.8928   -2.5163    0.0000 C   0  0  2  0  0  0  0  0  0  0  0  0
    4.4247   -3.1470    0.0000 C   0  0  0  0  0  0  0  0  0  0  0  0
    5.2368   -3.0018    0.0000 C   0  0  2  0  0  0  0  0  0  0  0  0
    5.7686   -3.6325    0.0000 O   0  0  0  0  0  0  0  0  0  0  0  0
    5.5171   -2.2259    0.0000 C   0  0  1  0  0  0  0  0  0  0  0  0
    4.9853   -1.5952    0.0000 C   0  0  1  0  0  0  0  0  0  0  0  0
    5.2655   -0.8192    0.0000 C   0  0  0  0  0  0  0  0  0  0  0  0
    6.0777   -0.6740    0.0000 C   0  0  0  0  0  0  0  0  0  0  0  0
    6.6095   -1.3047    0.0000 C   0  0  0  0  0  0  0  0  0  0  0  0
    7.4216   -1.1595    0.0000 C   0  0  0  0  0  0  0  0  0  0  0  0
    7.9534   -1.7902    0.0000 C   0  0  0  0  0  0  0  0  0  0  0  0
    8.7655   -1.6450    0.0000 O   0  0  0  0  0  0  0  0  0  0  0  0
    7.6731   -2.5662    0.0000 C   0  0  0  0  0  0  0  0  0  0  0  0
    6.8610   -2.7114    0.0000 C   0  0  0  0  0  0  0  0  0  0  0  0
    6.3292   -2.0807    0.0000 C   0  0  2  0  0  0  0  0  0  0  0  0
    6.0489   -2.8566    0.0000 C   0  0  0  0  0  0  0  0  0  0  0  0
    4.1731   -1.7404    0.0000 C   0  0  2  0  0  0  0  0  0  0  0  0
    3.5218   -1.2340    0.0000 C   0  0  0  0  0  0  0  0  0  0  0  0
    2.8390   -1.6970    0.0000 C   0  0  0  0  0  0  0  0  0  0  0  0
    3.0683   -2.4895    0.0000 C   0  0  1  0  0  0  0  0  0  0  0  0
    2.3074   -2.8084    0.0000 O   0  0  0  0  0  0  0  0  0  0  0  0
    2.9469   -3.3055    0.0000 C   0  0  0  0  0  0  0  0  0  0  0  0
    2.1795   -3.6084    0.0000 O   0  0  0  0  0  0  0  0  0  0  0  0
    3.5929   -3.8187    0.0000 C   0  0  0  0  0  0  0  0  0  0  0  0
    3.4715   -4.6347    0.0000 O   0  0  0  0  0  0  0  0  0  0  0  0
    4.1174   -5.1478    0.0000 C   0  0  0  0  0  0  0  0  0  0  0  0
    4.8848   -4.8450    0.0000 O   0  0  0  0  0  0  0  0  0  0  0  0
    3.9960   -5.9638    0.0000 C   0  0  0  0  0  0  0  0  0  0  0  0
    4.6420   -6.4770    0.0000 C   0  0  0  0  0  0  0  0  0  0  0  0
    4.5206   -7.2930    0.0000 C   0  0  0  0  0  0  0  0  0  0  0  0
    3.7532   -7.5959    0.0000 C   0  0  0  0  0  0  0  0  0  0  0  0
    3.1072   -7.0827    0.0000 C   0  0  0  0  0  0  0  0  0  0  0  0
    3.2286   -6.2667    0.0000 C   0  0  0  0  0  0  0  0  0  0  0  0
    5.1666   -7.8062    0.0000 S   0  0  0  0  0  0  0  0  0  0  0  0
    5.8126   -8.3193    0.0000 O   0  0  0  0  0  0  0  0  0  0  0  0
    4.6535   -8.4522    0.0000 O   0  0  0  0  0  0  0  0  0  0  0  0
    5.6798   -7.1602    0.0000 O   0  0  0  0  0  0  0  0  0  0  0  0
  2  1  1  1  0  0  0
  2  3  1  0  0  0  0
  3  4  1  0  0  0  0
  4  5  1  1  0  0  0
  6  4  1  1  0  0  0
  6  7  1  0  0  0  0
  7  8  1  6  0  0  0
  8  9  1  0  0  0  0
  9 10  1  0  0  0  0
 10 11  2  0  0  0  0
 11 12  1  0  0  0  0
 12 13  2  0  0  0  0
 12 14  1  0  0  0  0
 14 15  2  0  0  0  0
 15 16  1  0  0  0  0
  6 16  1  0  0  0  0
 10 16  1  0  0  0  0
 16 17  1  1  0  0  0
  7 18  1  0  0  0  0
  2 18  1  0  0  0  0
 18 19  1  1  0  0  0
 19 20  1  0  0  0  0
 20 21  1  0  0  0  0
  2 21  1  0  0  0  0
 21 22  1  6  0  0  0
 21 23  1  1  0  0  0
 23 24  2  0  0  0  0
 23 25  1  0  0  0  0
 25 26  1  0  0  0  0
 26 27  1  0  0  0  0
 27 28  2  0  0  0  0
 27 29  1  0  0  0  0
 29 30  4  0  0  0  0
 30 31  4  0  0  0  0
 31 32  4  0  0  0  0
 32 33  4  0  0  0  0
 33 34  4  0  0  0  0
 29 34  4  0  0  0  0
 31 35  1  0  0  0  0
 35 36  1  0  0  0  0
 35 37  2  0  0  0  0
 35 38  2  0  0  0  0
M  END
>  <ID>
2250

>  <PREFERRED_NAME>
prednisolone sulfobenzoate

>  <CAS_RN>
630-67-1

>  <SYNONYMS>
prednisolone sulfobenzoate
prednisolone metasulfobenzoate
prednisolone metasulfobenzoate sodium
prednisolone sodium metasulfobenzoate
prednisolone metazoate
prednisolone sodium metazoate

>  <URL>
http://drugcentral.org/drugcard/2250/view

$$$$
