prednimustine
  -INDIGO-06102311042D

 44 48  0  0  1  0  0  0  0  0999 V2000
    4.4031   -0.8142    0.0000 C   0  0  0  0  0  0  0  0  0  0  0  0
    3.5979   -0.9941    0.0000 C   0  0  2  0  0  0  0  0  0  0  0  0
    3.7610   -0.1854    0.0000 C   0  0  0  0  0  0  0  0  0  0  0  0
    3.1422    0.3602    0.0000 C   0  0  2  0  0  0  0  0  0  0  0  0
    3.3052    1.1689    0.0000 O   0  0  0  0  0  0  0  0  0  0  0  0
    2.3603    0.0970    0.0000 C   0  0  1  0  0  0  0  0  0  0  0  0
    2.1972   -0.7117    0.0000 C   0  0  1  0  0  0  0  0  0  0  0  0
    1.4153   -0.9748    0.0000 C   0  0  0  0  0  0  0  0  0  0  0  0
    0.7964   -0.4292    0.0000 C   0  0  0  0  0  0  0  0  0  0  0  0
    0.9595    0.3795    0.0000 C   0  0  0  0  0  0  0  0  0  0  0  0
    0.3407    0.9251    0.0000 C   0  0  0  0  0  0  0  0  0  0  0  0
    0.5037    1.7338    0.0000 C   0  0  0  0  0  0  0  0  0  0  0  0
   -0.1151    2.2794    0.0000 O   0  0  0  0  0  0  0  0  0  0  0  0
    1.2856    1.9969    0.0000 C   0  0  0  0  0  0  0  0  0  0  0  0
    1.9045    1.4513    0.0000 C   0  0  0  0  0  0  0  0  0  0  0  0
    1.7414    0.6426    0.0000 C   0  0  2  0  0  0  0  0  0  0  0  0
    2.5233    0.9058    0.0000 C   0  0  0  0  0  0  0  0  0  0  0  0
    2.8160   -1.2573    0.0000 C   0  0  2  0  0  0  0  0  0  0  0  0
    2.8247   -2.0822    0.0000 C   0  0  0  0  0  0  0  0  0  0  0  0
    3.6119   -2.3289    0.0000 C   0  0  0  0  0  0  0  0  0  0  0  0
    4.0898   -1.6565    0.0000 C   0  0  1  0  0  0  0  0  0  0  0  0
    4.8128   -2.0539    0.0000 O   0  0  0  0  0  0  0  0  0  0  0  0
    4.8043   -1.2440    0.0000 C   0  0  0  0  0  0  0  0  0  0  0  0
    4.8043   -0.4190    0.0000 O   0  0  0  0  0  0  0  0  0  0  0  0
    5.5188   -1.6565    0.0000 C   0  0  0  0  0  0  0  0  0  0  0  0
    6.2332   -1.2440    0.0000 O   0  0  0  0  0  0  0  0  0  0  0  0
    6.9477   -1.6565    0.0000 C   0  0  0  0  0  0  0  0  0  0  0  0
    6.9477   -2.4815    0.0000 O   0  0  0  0  0  0  0  0  0  0  0  0
    7.6622   -1.2440    0.0000 C   0  0  0  0  0  0  0  0  0  0  0  0
    8.3766   -1.6565    0.0000 C   0  0  0  0  0  0  0  0  0  0  0  0
    9.0911   -1.2440    0.0000 C   0  0  0  0  0  0  0  0  0  0  0  0
    9.8056   -1.6565    0.0000 C   0  0  0  0  0  0  0  0  0  0  0  0
   10.5201   -1.2440    0.0000 C   0  0  0  0  0  0  0  0  0  0  0  0
   11.2345   -1.6565    0.0000 C   0  0  0  0  0  0  0  0  0  0  0  0
   11.2345   -2.4815    0.0000 C   0  0  0  0  0  0  0  0  0  0  0  0
   10.5201   -2.8940    0.0000 C   0  0  0  0  0  0  0  0  0  0  0  0
    9.8056   -2.4815    0.0000 C   0  0  0  0  0  0  0  0  0  0  0  0
   11.9490   -2.8940    0.0000 N   0  0  0  0  0  0  0  0  0  0  0  0
   12.6635   -2.4815    0.0000 C   0  0  0  0  0  0  0  0  0  0  0  0
   13.3779   -2.8940    0.0000 C   0  0  0  0  0  0  0  0  0  0  0  0
   14.0924   -2.4815    0.0000 Cl  0  0  0  0  0  0  0  0  0  0  0  0
   11.9490   -3.7190    0.0000 C   0  0  0  0  0  0  0  0  0  0  0  0
   12.6635   -4.1315    0.0000 C   0  0  0  0  0  0  0  0  0  0  0  0
   12.6635   -4.9565    0.0000 Cl  0  0  0  0  0  0  0  0  0  0  0  0
  2  1  1  1  0  0  0
  2  3  1  0  0  0  0
  3  4  1  0  0  0  0
  4  5  1  1  0  0  0
  6  4  1  1  0  0  0
  6  7  1  0  0  0  0
  7  8  1  6  0  0  0
  8  9  1  0  0  0  0
  9 10  1  0  0  0  0
 10 11  2  0  0  0  0
 11 12  1  0  0  0  0
 12 13  2  0  0  0  0
 12 14  1  0  0  0  0
 14 15  2  0  0  0  0
 15 16  1  0  0  0  0
  6 16  1  0  0  0  0
 10 16  1  0  0  0  0
 16 17  1  1  0  0  0
  7 18  1  0  0  0  0
  2 18  1  0  0  0  0
 18 19  1  1  0  0  0
 19 20  1  0  0  0  0
 20 21  1  0  0  0  0
  2 21  1  0  0  0  0
 21 22  1  6  0  0  0
 21 23  1  1  0  0  0
 23 24  2  0  0  0  0
 23 25  1  0  0  0  0
 25 26  1  0  0  0  0
 26 27  1  0  0  0  0
 27 28  2  0  0  0  0
 27 29  1  0  0  0  0
 29 30  1  0  0  0  0
 30 31  1  0  0  0  0
 31 32  1  0  0  0  0
 32 33  4  0  0  0  0
 33 34  4  0  0  0  0
 34 35  4  0  0  0  0
 35 36  4  0  0  0  0
 36 37  4  0  0  0  0
 32 37  4  0  0  0  0
 35 38  1  0  0  0  0
 38 39  1  0  0  0  0
 39 40  1  0  0  0  0
 40 41  1  0  0  0  0
 38 42  1  0  0  0  0
 42 43  1  0  0  0  0
 43 44  1  0  0  0  0
M  END
>  <ID>
2244

>  <PREFERRED_NAME>
prednimustine

>  <CAS_RN>
29069-24-7

>  <SYNONYMS>
prednimustine
prednisolone chlorambucil ester
sterecyt
stereocyt

>  <URL>
http://drugcentral.org/drugcard/2244/view

$$$$
