pridinol
  -INDIGO-06102311042D

 22 24  0  0  0  0  0  0  0  0999 V2000
    2.0625    2.3645    0.0000 O   0  0  0  0  0  0  0  0  0  0  0  0
    2.8875    2.3645    0.0000 C   0  0  0  0  0  0  0  0  0  0  0  0
    2.8875    1.5395    0.0000 C   0  0  0  0  0  0  0  0  0  0  0  0
    3.6020    1.1270    0.0000 C   0  0  0  0  0  0  0  0  0  0  0  0
    3.6020    0.3020    0.0000 N   0  0  0  0  0  0  0  0  0  0  0  0
    4.3164   -0.1105    0.0000 C   0  0  0  0  0  0  0  0  0  0  0  0
    4.3164   -0.9355    0.0000 C   0  0  0  0  0  0  0  0  0  0  0  0
    3.6020   -1.3480    0.0000 C   0  0  0  0  0  0  0  0  0  0  0  0
    2.8875   -0.9355    0.0000 C   0  0  0  0  0  0  0  0  0  0  0  0
    2.8875   -0.1105    0.0000 C   0  0  0  0  0  0  0  0  0  0  0  0
    2.8875    3.1895    0.0000 C   0  0  0  0  0  0  0  0  0  0  0  0
    2.1730    3.6020    0.0000 C   0  0  0  0  0  0  0  0  0  0  0  0
    2.1730    4.4270    0.0000 C   0  0  0  0  0  0  0  0  0  0  0  0
    2.8875    4.8395    0.0000 C   0  0  0  0  0  0  0  0  0  0  0  0
    3.6020    4.4270    0.0000 C   0  0  0  0  0  0  0  0  0  0  0  0
    3.6020    3.6020    0.0000 C   0  0  0  0  0  0  0  0  0  0  0  0
    3.7125    2.3645    0.0000 C   0  0  0  0  0  0  0  0  0  0  0  0
    4.1250    3.0789    0.0000 C   0  0  0  0  0  0  0  0  0  0  0  0
    4.9500    3.0789    0.0000 C   0  0  0  0  0  0  0  0  0  0  0  0
    5.3625    2.3645    0.0000 C   0  0  0  0  0  0  0  0  0  0  0  0
    4.9500    1.6500    0.0000 C   0  0  0  0  0  0  0  0  0  0  0  0
    4.1250    1.6500    0.0000 C   0  0  0  0  0  0  0  0  0  0  0  0
  1  2  1  0  0  0  0
  2  3  1  0  0  0  0
  3  4  1  0  0  0  0
  4  5  1  0  0  0  0
  5  6  1  0  0  0  0
  6  7  1  0  0  0  0
  7  8  1  0  0  0  0
  8  9  1  0  0  0  0
  9 10  1  0  0  0  0
  5 10  1  0  0  0  0
  2 11  1  0  0  0  0
 11 12  4  0  0  0  0
 12 13  4  0  0  0  0
 13 14  4  0  0  0  0
 14 15  4  0  0  0  0
 15 16  4  0  0  0  0
 11 16  4  0  0  0  0
  2 17  1  0  0  0  0
 17 18  4  0  0  0  0
 18 19  4  0  0  0  0
 19 20  4  0  0  0  0
 20 21  4  0  0  0  0
 21 22  4  0  0  0  0
 17 22  4  0  0  0  0
M  END
>  <ID>
2263

>  <PREFERRED_NAME>
pridinol

>  <CAS_RN>
511-45-5

>  <SYNONYMS>
pridinol
pridinol methanesulfonate salt
pridinol methanesulfonate

>  <URL>
http://drugcentral.org/drugcard/2263/view

$$$$
