procyclidine
  -INDIGO-06102311042D

 21 23  0  0  0  0  0  0  0  0999 V2000
    1.9393    2.2413    0.0000 O   0  0  0  0  0  0  0  0  0  0  0  0
    2.7643    2.2413    0.0000 C   0  0  0  0  0  0  0  0  0  0  0  0
    2.7643    1.4163    0.0000 C   0  0  0  0  0  0  0  0  0  0  0  0
    3.4788    1.0038    0.0000 C   0  0  0  0  0  0  0  0  0  0  0  0
    3.4788    0.1788    0.0000 N   0  0  0  0  0  0  0  0  0  0  0  0
    4.1462   -0.3062    0.0000 C   0  0  0  0  0  0  0  0  0  0  0  0
    3.8913   -1.0908    0.0000 C   0  0  0  0  0  0  0  0  0  0  0  0
    3.0663   -1.0908    0.0000 C   0  0  0  0  0  0  0  0  0  0  0  0
    2.8113   -0.3062    0.0000 C   0  0  0  0  0  0  0  0  0  0  0  0
    2.7643    3.0663    0.0000 C   0  0  0  0  0  0  0  0  0  0  0  0
    2.0498    3.4788    0.0000 C   0  0  0  0  0  0  0  0  0  0  0  0
    2.0498    4.3038    0.0000 C   0  0  0  0  0  0  0  0  0  0  0  0
    2.7643    4.7163    0.0000 C   0  0  0  0  0  0  0  0  0  0  0  0
    3.4788    4.3038    0.0000 C   0  0  0  0  0  0  0  0  0  0  0  0
    3.4788    3.4788    0.0000 C   0  0  0  0  0  0  0  0  0  0  0  0
    3.5893    2.2413    0.0000 C   0  0  0  0  0  0  0  0  0  0  0  0
    4.0018    2.9557    0.0000 C   0  0  0  0  0  0  0  0  0  0  0  0
    4.8268    2.9557    0.0000 C   0  0  0  0  0  0  0  0  0  0  0  0
    5.2393    2.2413    0.0000 C   0  0  0  0  0  0  0  0  0  0  0  0
    4.8268    1.5268    0.0000 C   0  0  0  0  0  0  0  0  0  0  0  0
    4.0018    1.5268    0.0000 C   0  0  0  0  0  0  0  0  0  0  0  0
  1  2  1  0  0  0  0
  2  3  1  0  0  0  0
  3  4  1  0  0  0  0
  4  5  1  0  0  0  0
  5  6  1  0  0  0  0
  6  7  1  0  0  0  0
  7  8  1  0  0  0  0
  8  9  1  0  0  0  0
  5  9  1  0  0  0  0
  2 10  1  0  0  0  0
 10 11  1  0  0  0  0
 11 12  1  0  0  0  0
 12 13  1  0  0  0  0
 13 14  1  0  0  0  0
 14 15  1  0  0  0  0
 10 15  1  0  0  0  0
  2 16  1  0  0  0  0
 16 17  4  0  0  0  0
 17 18  4  0  0  0  0
 18 19  4  0  0  0  0
 19 20  4  0  0  0  0
 20 21  4  0  0  0  0
 16 21  4  0  0  0  0
M  END
>  <ID>
2276

>  <PREFERRED_NAME>
procyclidine

>  <CAS_RN>
77-37-2

>  <SYNONYMS>
procyclidine
kemadrine
tricoloid
tricyclamol
procyclidine hydrochloride
procyclidine HCl

>  <URL>
http://drugcentral.org/drugcard/2276/view

$$$$
