proglumetacin
  -INDIGO-06102311042D

 60 64  0  0  0  0  0  0  0  0999 V2000
   -5.4500    5.8681    0.0000 C   0  0  0  0  0  0  0  0  0  0  0  0
   -5.0375    6.5826    0.0000 C   0  0  0  0  0  0  0  0  0  0  0  0
   -5.4500    7.2970    0.0000 C   0  0  0  0  0  0  0  0  0  0  0  0
   -6.2750    7.2970    0.0000 N   0  0  0  0  0  0  0  0  0  0  0  0
   -6.6875    6.5826    0.0000 C   0  0  0  0  0  0  0  0  0  0  0  0
   -6.2750    5.8681    0.0000 C   0  0  0  0  0  0  0  0  0  0  0  0
   -6.6875    5.1536    0.0000 C   0  0  0  0  0  0  0  0  0  0  0  0
   -6.6875    8.0115    0.0000 C   0  0  0  0  0  0  0  0  0  0  0  0
   -7.5125    8.0115    0.0000 O   0  0  0  0  0  0  0  0  0  0  0  0
   -6.2750    8.7260    0.0000 C   0  0  0  0  0  0  0  0  0  0  0  0
   -5.4500    8.7260    0.0000 C   0  0  0  0  0  0  0  0  0  0  0  0
   -5.0375    8.0115    0.0000 C   0  0  0  0  0  0  0  0  0  0  0  0
   -4.2125    8.0115    0.0000 C   0  0  0  0  0  0  0  0  0  0  0  0
   -3.8000    8.7260    0.0000 O   0  0  0  0  0  0  0  0  0  0  0  0
   -3.8000    7.2970    0.0000 O   0  0  0  0  0  0  0  0  0  0  0  0
   -2.9750    7.2970    0.0000 C   0  0  0  0  0  0  0  0  0  0  0  0
   -2.5625    6.5826    0.0000 C   0  0  0  0  0  0  0  0  0  0  0  0
   -1.7375    6.5826    0.0000 C   0  0  0  0  0  0  0  0  0  0  0  0
   -1.3250    5.8681    0.0000 N   0  0  0  0  0  0  0  0  0  0  0  0
   -0.5000    5.8681    0.0000 C   0  0  0  0  0  0  0  0  0  0  0  0
   -0.0875    5.1536    0.0000 C   0  0  0  0  0  0  0  0  0  0  0  0
   -0.5000    4.4392    0.0000 N   0  0  0  0  0  0  0  0  0  0  0  0
   -0.0875    3.7247    0.0000 C   0  0  0  0  0  0  0  0  0  0  0  0
   -0.5000    3.0102    0.0000 C   0  0  0  0  0  0  0  0  0  0  0  0
   -0.0875    2.2958    0.0000 O   0  0  0  0  0  0  0  0  0  0  0  0
   -0.5000    1.5813    0.0000 C   0  0  0  0  0  0  0  0  0  0  0  0
   -1.3250    1.5813    0.0000 O   0  0  0  0  0  0  0  0  0  0  0  0
   -0.0875    0.8668    0.0000 C   0  0  0  0  0  0  0  0  0  0  0  0
    0.7375    0.8668    0.0000 C   0  0  0  0  0  0  0  0  0  0  0  0
    1.2225    0.1994    0.0000 C   0  0  0  0  0  0  0  0  0  0  0  0
    0.9675   -0.5853    0.0000 C   0  0  0  0  0  0  0  0  0  0  0  0
    2.0071    0.4543    0.0000 N   0  0  0  0  0  0  0  0  0  0  0  0
    2.6745   -0.0306    0.0000 C   0  0  0  0  0  0  0  0  0  0  0  0
    2.5883   -0.8511    0.0000 O   0  0  0  0  0  0  0  0  0  0  0  0
    3.4282    0.3049    0.0000 C   0  0  0  0  0  0  0  0  0  0  0  0
    3.5144    1.1254    0.0000 C   0  0  0  0  0  0  0  0  0  0  0  0
    4.2681    1.4610    0.0000 C   0  0  0  0  0  0  0  0  0  0  0  0
    4.9355    0.9761    0.0000 C   0  0  0  0  0  0  0  0  0  0  0  0
    5.6892    1.3116    0.0000 Cl  0  0  0  0  0  0  0  0  0  0  0  0
    4.8493    0.1556    0.0000 C   0  0  0  0  0  0  0  0  0  0  0  0
    4.0956   -0.1800    0.0000 C   0  0  0  0  0  0  0  0  0  0  0  0
    2.0071    1.2793    0.0000 C   0  0  0  0  0  0  0  0  0  0  0  0
    1.2225    1.5342    0.0000 C   0  0  0  0  0  0  0  0  0  0  0  0
    1.0509    2.3412    0.0000 C   0  0  0  0  0  0  0  0  0  0  0  0
    1.6640    2.8933    0.0000 C   0  0  0  0  0  0  0  0  0  0  0  0
    1.4925    3.7002    0.0000 O   0  0  0  0  0  0  0  0  0  0  0  0
    2.1056    4.2523    0.0000 C   0  0  0  0  0  0  0  0  0  0  0  0
    2.4486    2.6383    0.0000 C   0  0  0  0  0  0  0  0  0  0  0  0
    2.6202    1.8313    0.0000 C   0  0  0  0  0  0  0  0  0  0  0  0
   -1.3250    4.4392    0.0000 C   0  0  0  0  0  0  0  0  0  0  0  0
   -1.7375    5.1536    0.0000 C   0  0  0  0  0  0  0  0  0  0  0  0
   -6.6875    9.4405    0.0000 N   0  0  0  0  0  0  0  0  0  0  0  0
   -7.5125    9.4405    0.0000 C   0  0  0  0  0  0  0  0  0  0  0  0
   -7.9250    8.7260    0.0000 O   0  0  0  0  0  0  0  0  0  0  0  0
   -7.9250   10.1549    0.0000 C   0  0  0  0  0  0  0  0  0  0  0  0
   -8.7500   10.1549    0.0000 C   0  0  0  0  0  0  0  0  0  0  0  0
   -9.1625   10.8694    0.0000 C   0  0  0  0  0  0  0  0  0  0  0  0
   -8.7500   11.5839    0.0000 C   0  0  0  0  0  0  0  0  0  0  0  0
   -7.9250   11.5839    0.0000 C   0  0  0  0  0  0  0  0  0  0  0  0
   -7.5125   10.8694    0.0000 C   0  0  0  0  0  0  0  0  0  0  0  0
  1  2  1  0  0  0  0
  2  3  1  0  0  0  0
  3  4  1  0  0  0  0
  4  5  1  0  0  0  0
  5  6  1  0  0  0  0
  6  7  1  0  0  0  0
  4  8  1  0  0  0  0
  8  9  2  0  0  0  0
  8 10  1  0  0  0  0
 10 11  1  0  0  0  0
 11 12  1  0  0  0  0
 12 13  1  0  0  0  0
 13 14  2  0  0  0  0
 13 15  1  0  0  0  0
 15 16  1  0  0  0  0
 16 17  1  0  0  0  0
 17 18  1  0  0  0  0
 18 19  1  0  0  0  0
 19 20  1  0  0  0  0
 20 21  1  0  0  0  0
 21 22  1  0  0  0  0
 22 23  1  0  0  0  0
 23 24  1  0  0  0  0
 24 25  1  0  0  0  0
 25 26  1  0  0  0  0
 26 27  2  0  0  0  0
 26 28  1  0  0  0  0
 28 29  1  0  0  0  0
 29 30  4  0  0  0  0
 30 31  1  0  0  0  0
 30 32  4  0  0  0  0
 32 33  1  0  0  0  0
 33 34  2  0  0  0  0
 33 35  1  0  0  0  0
 35 36  4  0  0  0  0
 36 37  4  0  0  0  0
 37 38  4  0  0  0  0
 38 39  1  0  0  0  0
 38 40  4  0  0  0  0
 40 41  4  0  0  0  0
 35 41  4  0  0  0  0
 32 42  4  0  0  0  0
 42 43  4  0  0  0  0
 29 43  4  0  0  0  0
 43 44  4  0  0  0  0
 44 45  4  0  0  0  0
 45 46  1  0  0  0  0
 46 47  1  0  0  0  0
 45 48  4  0  0  0  0
 48 49  4  0  0  0  0
 42 49  4  0  0  0  0
 22 50  1  0  0  0  0
 50 51  1  0  0  0  0
 19 51  1  0  0  0  0
 10 52  1  0  0  0  0
 52 53  1  0  0  0  0
 53 54  2  0  0  0  0
 53 55  1  0  0  0  0
 55 56  4  0  0  0  0
 56 57  4  0  0  0  0
 57 58  4  0  0  0  0
 58 59  4  0  0  0  0
 59 60  4  0  0  0  0
 55 60  4  0  0  0  0
M  END
>  <ID>
2280

>  <PREFERRED_NAME>
proglumetacin

>  <CAS_RN>
57132-53-3

>  <SYNONYMS>
proglumetacin
proglumetacin maleate
proglumetacin dimaleate
protacine
afloxan
CR 604

>  <URL>
http://drugcentral.org/drugcard/2280/view

$$$$
