propizepine
  -INDIGO-06102311042D

 22 24  0  0  0  0  0  0  0  0999 V2000
    3.2867    3.6636    0.0000 C   0  0  0  0  0  0  0  0  0  0  0  0
    4.1094    3.7252    0.0000 C   0  0  0  0  0  0  0  0  0  0  0  0
    4.5741    3.0436    0.0000 C   0  0  0  0  0  0  0  0  0  0  0  0
    4.2162    2.3003    0.0000 N   0  0  0  0  0  0  0  0  0  0  0  0
    4.7305    1.6553    0.0000 C   0  0  0  0  0  0  0  0  0  0  0  0
    5.5189    1.8985    0.0000 C   0  0  0  0  0  0  0  0  0  0  0  0
    6.1237    1.3373    0.0000 C   0  0  0  0  0  0  0  0  0  0  0  0
    5.9401    0.5330    0.0000 C   0  0  0  0  0  0  0  0  0  0  0  0
    5.1517    0.2898    0.0000 C   0  0  0  0  0  0  0  0  0  0  0  0
    4.5470    0.8510    0.0000 C   0  0  0  0  0  0  0  0  0  0  0  0
    3.8037    0.4930    0.0000 N   0  0  0  0  0  0  0  0  0  0  0  0
    3.0604    0.8510    0.0000 C   0  0  0  0  0  0  0  0  0  0  0  0
    2.8768    1.6553    0.0000 C   0  0  0  0  0  0  0  0  0  0  0  0
    2.0884    1.8985    0.0000 C   0  0  0  0  0  0  0  0  0  0  0  0
    1.4837    1.3373    0.0000 C   0  0  0  0  0  0  0  0  0  0  0  0
    1.6673    0.5330    0.0000 C   0  0  0  0  0  0  0  0  0  0  0  0
    2.4556    0.2898    0.0000 N   0  0  0  0  0  0  0  0  0  0  0  0
    3.3912    2.3003    0.0000 C   0  0  0  0  0  0  0  0  0  0  0  0
    3.0332    3.0436    0.0000 O   0  0  0  0  0  0  0  0  0  0  0  0
    4.4673    4.4685    0.0000 N   0  0  0  0  0  0  0  0  0  0  0  0
    4.0026    5.1502    0.0000 C   0  0  0  0  0  0  0  0  0  0  0  0
    5.2900    4.5302    0.0000 C   0  0  0  0  0  0  0  0  0  0  0  0
  1  2  1  0  0  0  0
  2  3  1  0  0  0  0
  3  4  1  0  0  0  0
  4  5  1  0  0  0  0
  5  6  4  0  0  0  0
  6  7  4  0  0  0  0
  7  8  4  0  0  0  0
  8  9  4  0  0  0  0
  9 10  4  0  0  0  0
  5 10  4  0  0  0  0
 10 11  1  0  0  0  0
 11 12  1  0  0  0  0
 12 13  4  0  0  0  0
 13 14  4  0  0  0  0
 14 15  4  0  0  0  0
 15 16  4  0  0  0  0
 16 17  4  0  0  0  0
 12 17  4  0  0  0  0
 13 18  1  0  0  0  0
  4 18  1  0  0  0  0
 18 19  2  0  0  0  0
  2 20  1  0  0  0  0
 20 21  1  0  0  0  0
 20 22  1  0  0  0  0
M  END
>  <ID>
2301

>  <PREFERRED_NAME>
propizepine

>  <CAS_RN>
10321-12-7

>  <SYNONYMS>
propizepine
propiezepine
propizepine hydrochloride
depressin
propizepine HCl

>  <URL>
http://drugcentral.org/drugcard/2301/view

$$$$
