protoverine
  -INDIGO-06102311042D

 37 43  0  0  1  0  0  0  0  0999 V2000
    8.4565    1.6904    0.0000 C   0  0  0  0  0  0  0  0  0  0  0  0
    8.0790    0.9568    0.0000 C   0  0  1  0  0  0  0  0  0  0  0  0
    8.5254    0.2631    0.0000 C   0  0  0  0  0  0  0  0  0  0  0  0
    8.1479   -0.4705    0.0000 C   0  0  0  0  0  0  0  0  0  0  0  0
    7.3239   -0.5103    0.0000 C   0  0  2  0  0  0  0  0  0  0  0  0
    6.8774    0.1835    0.0000 N   0  0  0  0  0  0  0  0  0  0  0  0
    7.2549    0.9170    0.0000 C   0  0  0  0  0  0  0  0  0  0  0  0
    6.0533    0.1437    0.0000 C   0  0  0  0  0  0  0  0  0  0  0  0
    5.6758   -0.5899    0.0000 C   0  0  1  0  0  0  0  0  0  0  0  0
    4.8517   -0.6297    0.0000 C   0  0  2  0  0  0  0  0  0  0  0  0
    4.2396   -0.0506    0.0000 C   0  0  0  0  0  0  0  0  0  0  0  0
    3.4529   -0.3968    0.0000 C   0  0  1  0  0  0  0  0  0  0  0  0
    3.0305    0.3571    0.0000 O   0  0  0  0  0  0  0  0  0  0  0  0
    2.0318   -0.1643    0.0000 C   0  0  1  0  0  0  0  0  0  0  0  0
    2.0034   -0.9888    0.0000 O   0  0  0  0  0  0  0  0  0  0  0  0
    2.1819   -0.7272    0.0000 C   0  0  1  0  0  0  0  0  0  0  0  0
    2.2182   -1.5488    0.0000 C   0  0  1  0  0  0  0  0  0  0  0  0
    1.5661   -2.0542    0.0000 O   0  0  0  0  0  0  0  0  0  0  0  0
    2.9985   -1.7869    0.0000 C   0  0  1  0  0  0  0  0  0  0  0  0
    3.1619   -2.5956    0.0000 O   0  0  0  0  0  0  0  0  0  0  0  0
    3.6420   -1.2504    0.0000 C   0  0  1  0  0  0  0  0  0  0  0  0
    4.4742   -1.3632    0.0000 C   0  0  1  0  0  0  0  0  0  0  0  0
    4.0312   -2.0592    0.0000 O   0  0  0  0  0  0  0  0  0  0  0  0
    4.9207   -2.0569    0.0000 C   0  0  1  0  0  0  0  0  0  0  0  0
    4.5431   -2.7905    0.0000 O   0  0  0  0  0  0  0  0  0  0  0  0
    5.7447   -2.0171    0.0000 C   0  0  2  0  0  0  0  0  0  0  0  0
    6.1912   -2.7109    0.0000 O   0  0  0  0  0  0  0  0  0  0  0  0
    6.1223   -1.2836    0.0000 C   0  0  2  0  0  0  0  0  0  0  0  0
    6.9463   -1.2438    0.0000 C   0  0  1  0  0  0  0  0  0  0  0  0
    7.0148   -2.0659    0.0000 C   0  0  0  0  0  0  0  0  0  0  0  0
    7.6662   -1.6467    0.0000 O   0  0  0  0  0  0  0  0  0  0  0  0
    2.7398    0.0357    0.0000 C   0  0  1  0  0  0  0  0  0  0  0  0
    3.4129    0.5127    0.0000 C   0  0  0  0  0  0  0  0  0  0  0  0
    2.5574    0.9029    0.0000 C   0  0  0  0  0  0  0  0  0  0  0  0
    1.7354    1.0052    0.0000 C   0  0  0  0  0  0  0  0  0  0  0  0
    1.2950    0.2874    0.0000 C   0  0  2  0  0  0  0  0  0  0  0  0
    0.4927    0.0951    0.0000 O   0  0  0  0  0  0  0  0  0  0  0  0
  2  1  1  1  0  0  0
  2  3  1  0  0  0  0
  3  4  1  0  0  0  0
  4  5  1  0  0  0  0
  5  6  1  1  0  0  0
  6  7  1  0  0  0  0
  2  7  1  0  0  0  0
  6  8  1  0  0  0  0
  9  8  1  6  0  0  0
  9 10  1  0  0  0  0
 10 11  1  1  0  0  0
 11 12  1  0  0  0  0
 12 13  1  6  0  0  0
 13 14  1  0  0  0  0
 14 15  1  6  0  0  0
 16 14  1  6  0  0  0
 16 17  1  0  0  0  0
 17 18  1  6  0  0  0
 17 19  1  0  0  0  0
 19 20  1  6  0  0  0
 19 21  1  0  0  0  0
 21 12  1  6  0  0  0
 21 22  1  0  0  0  0
 10 22  1  0  0  0  0
 22 23  1  6  0  0  0
 22 24  1  0  0  0  0
 24 25  1  6  0  0  0
 24 26  1  0  0  0  0
 26 27  1  1  0  0  0
 28 26  1  1  0  0  0
  9 28  1  0  0  0  0
 28 29  1  0  0  0  0
  5 29  1  0  0  0  0
 29 30  1  6  0  0  0
 29 31  1  1  0  0  0
 16 32  1  0  0  0  0
 12 32  1  0  0  0  0
 32 33  1  1  0  0  0
 32 34  1  0  0  0  0
 34 35  1  0  0  0  0
 35 36  1  0  0  0  0
 14 36  1  0  0  0  0
 36 37  1  1  0  0  0
M  END
>  <ID>
2319

>  <PREFERRED_NAME>
protoverine

>  <CAS_RN>
76-45-9

>  <SYNONYMS>
protoverine
6alpha-Hydroxygermine

>  <URL>
http://drugcentral.org/drugcard/2319/view

$$$$
