quinestrol
  -INDIGO-06102311042D

 27 31  0  0  1  0  0  0  0  0999 V2000
   -2.0361   -0.6122    0.0000 C   0  0  0  0  0  0  0  0  0  0  0  0
   -1.6762   -1.3546    0.0000 C   0  0  2  0  0  0  0  0  0  0  0  0
   -1.1444   -0.7239    0.0000 C   0  0  0  0  0  0  0  0  0  0  0  0
   -0.3323   -0.8691    0.0000 C   0  0  0  0  0  0  0  0  0  0  0  0
   -0.0520   -1.6450    0.0000 C   0  0  1  0  0  0  0  0  0  0  0  0
   -0.5838   -2.2757    0.0000 C   0  0  1  0  0  0  0  0  0  0  0  0
   -0.3035   -3.0516    0.0000 C   0  0  0  0  0  0  0  0  0  0  0  0
    0.5086   -3.1969    0.0000 C   0  0  0  0  0  0  0  0  0  0  0  0
    1.0404   -2.5662    0.0000 C   0  0  0  0  0  0  0  0  0  0  0  0
    0.7601   -1.7902    0.0000 C   0  0  0  0  0  0  0  0  0  0  0  0
    1.2920   -1.1595    0.0000 C   0  0  0  0  0  0  0  0  0  0  0  0
    2.1041   -1.3047    0.0000 C   0  0  0  0  0  0  0  0  0  0  0  0
    2.3844   -2.0807    0.0000 C   0  0  0  0  0  0  0  0  0  0  0  0
    3.1965   -2.2259    0.0000 O   0  0  0  0  0  0  0  0  0  0  0  0
    3.4768   -3.0018    0.0000 C   0  0  0  0  0  0  0  0  0  0  0  0
    4.2693   -3.2311    0.0000 C   0  0  0  0  0  0  0  0  0  0  0  0
    4.2961   -4.0557    0.0000 C   0  0  0  0  0  0  0  0  0  0  0  0
    3.5202   -4.3360    0.0000 C   0  0  0  0  0  0  0  0  0  0  0  0
    3.0138   -3.6846    0.0000 C   0  0  0  0  0  0  0  0  0  0  0  0
    1.8526   -2.7114    0.0000 C   0  0  0  0  0  0  0  0  0  0  0  0
   -1.3959   -2.1305    0.0000 C   0  0  2  0  0  0  0  0  0  0  0  0
   -2.0473   -2.6369    0.0000 C   0  0  0  0  0  0  0  0  0  0  0  0
   -2.7301   -2.1739    0.0000 C   0  0  0  0  0  0  0  0  0  0  0  0
   -2.5008   -1.3814    0.0000 C   0  0  2  0  0  0  0  0  0  0  0  0
   -3.2617   -1.0625    0.0000 O   0  0  0  0  0  0  0  0  0  0  0  0
   -2.6222   -0.5654    0.0000 C   0  0  0  0  0  0  0  0  0  0  0  0
   -2.7436    0.2506    0.0000 C   0  0  0  0  0  0  0  0  0  0  0  0
  2  1  1  6  0  0  0
  2  3  1  0  0  0  0
  3  4  1  0  0  0  0
  5  4  1  6  0  0  0
  5  6  1  0  0  0  0
  6  7  1  1  0  0  0
  7  8  1  0  0  0  0
  8  9  1  0  0  0  0
  9 10  4  0  0  0  0
  5 10  1  0  0  0  0
 10 11  4  0  0  0  0
 11 12  4  0  0  0  0
 12 13  4  0  0  0  0
 13 14  1  0  0  0  0
 14 15  1  0  0  0  0
 15 16  1  0  0  0  0
 16 17  1  0  0  0  0
 17 18  1  0  0  0  0
 18 19  1  0  0  0  0
 15 19  1  0  0  0  0
 13 20  4  0  0  0  0
  9 20  4  0  0  0  0
  6 21  1  0  0  0  0
  2 21  1  0  0  0  0
 21 22  1  6  0  0  0
 22 23  1  0  0  0  0
 23 24  1  0  0  0  0
  2 24  1  0  0  0  0
 24 25  1  6  0  0  0
 24 26  1  1  0  0  0
 26 27  3  0  0  0  0
M  END
>  <ID>
2342

>  <PREFERRED_NAME>
quinestrol

>  <CAS_RN>
152-43-2

>  <SYNONYMS>
quinestrol
estrovis
estrovister
plestrovis

>  <URL>
http://drugcentral.org/drugcard/2342/view

$$$$
