quinupristin
  -INDIGO-06102311042D

 73 80  0  0  1  0  0  0  0  0999 V2000
   -9.6654   -3.5886    0.0000 C   0  0  0  0  0  0  0  0  0  0  0  0
   -8.8685   -3.3751    0.0000 C   0  0  0  0  0  0  0  0  0  0  0  0
   -8.2852   -3.9584    0.0000 C   0  0  1  0  0  0  0  0  0  0  0  0
   -8.2852   -4.7834    0.0000 N   0  0  0  0  0  0  0  0  0  0  0  0
   -7.5707   -5.1959    0.0000 C   0  0  0  0  0  0  0  0  0  0  0  0
   -6.8562   -4.7834    0.0000 O   0  0  0  0  0  0  0  0  0  0  0  0
   -7.5707   -6.0209    0.0000 C   0  0  1  0  0  0  0  0  0  0  0  0
   -8.2852   -6.4334    0.0000 N   0  0  0  0  0  0  0  0  0  0  0  0
   -8.9996   -6.0209    0.0000 C   0  0  0  0  0  0  0  0  0  0  0  0
   -8.9996   -5.1959    0.0000 O   0  0  0  0  0  0  0  0  0  0  0  0
   -9.7141   -6.4334    0.0000 C   0  0  0  0  0  0  0  0  0  0  0  0
   -9.7141   -7.2584    0.0000 C   0  0  0  0  0  0  0  0  0  0  0  0
   -8.9996   -7.6709    0.0000 O   0  0  0  0  0  0  0  0  0  0  0  0
  -10.4286   -7.6709    0.0000 C   0  0  0  0  0  0  0  0  0  0  0  0
  -11.1430   -7.2584    0.0000 C   0  0  0  0  0  0  0  0  0  0  0  0
  -11.1430   -6.4334    0.0000 C   0  0  0  0  0  0  0  0  0  0  0  0
  -10.4286   -6.0209    0.0000 N   0  0  0  0  0  0  0  0  0  0  0  0
   -6.8562   -6.4334    0.0000 C   0  0  1  0  0  0  0  0  0  0  0  0
   -6.1418   -6.0209    0.0000 C   0  0  0  0  0  0  0  0  0  0  0  0
   -6.8562   -7.2584    0.0000 O   0  0  0  0  0  0  0  0  0  0  0  0
   -6.0947   -7.7434    0.0000 C   0  0  0  0  0  0  0  0  0  0  0  0
   -5.4424   -7.2382    0.0000 O   0  0  0  0  0  0  0  0  0  0  0  0
   -5.8398   -8.5280    0.0000 C   0  0  1  0  0  0  0  0  0  0  0  0
   -5.0148   -8.5280    0.0000 N   0  0  0  0  0  0  0  0  0  0  0  0
   -4.7599   -7.7434    0.0000 C   0  0  0  0  0  0  0  0  0  0  0  0
   -5.2241   -7.0614    0.0000 O   0  0  0  0  0  0  0  0  0  0  0  0
   -3.9983   -7.2584    0.0000 C   0  0  2  0  0  0  0  0  0  0  0  0
   -3.2839   -7.6709    0.0000 C   0  0  0  0  0  0  0  0  0  0  0  0
   -2.5694   -7.2584    0.0000 C   0  0  0  0  0  0  0  0  0  0  0  0
   -1.8549   -7.6709    0.0000 O   0  0  0  0  0  0  0  0  0  0  0  0
   -2.5694   -6.4334    0.0000 C   0  0  2  0  0  0  0  0  0  0  0  0
   -1.8549   -6.0209    0.0000 C   0  0  0  0  0  0  0  0  0  0  0  0
   -1.1405   -6.4334    0.0000 S   0  0  0  0  0  0  0  0  0  0  0  0
   -0.4260   -6.0209    0.0000 C   0  0  2  0  0  0  0  0  0  0  0  0
   -0.4260   -5.1959    0.0000 C   0  0  0  0  0  0  0  0  0  0  0  0
    0.2885   -4.7834    0.0000 N   0  0  0  0  0  0  0  0  0  0  0  0
    1.0030   -5.1959    0.0000 C   0  0  0  0  0  0  0  0  0  0  0  0
    1.0030   -6.0209    0.0000 C   0  0  0  0  0  0  0  0  0  0  0  0
    0.2885   -6.4334    0.0000 C   0  0  0  0  0  0  0  0  0  0  0  0
    0.4260   -5.8834    0.0000 C   0  0  0  0  0  0  0  0  0  0  0  0
    0.4260   -5.3334    0.0000 C   0  0  0  0  0  0  0  0  0  0  0  0
   -3.2839   -6.0209    0.0000 C   0  0  0  0  0  0  0  0  0  0  0  0
   -3.9983   -6.4334    0.0000 N   0  0  0  0  0  0  0  0  0  0  0  0
   -4.7128   -6.0209    0.0000 C   0  0  0  0  0  0  0  0  0  0  0  0
   -5.4273   -6.4334    0.0000 O   0  0  0  0  0  0  0  0  0  0  0  0
   -4.7128   -5.1959    0.0000 C   0  0  2  0  0  0  0  0  0  0  0  0
   -3.9983   -4.7834    0.0000 C   0  0  0  0  0  0  0  0  0  0  0  0
   -3.9983   -3.9584    0.0000 C   0  0  0  0  0  0  0  0  0  0  0  0
   -4.7128   -3.5459    0.0000 C   0  0  0  0  0  0  0  0  0  0  0  0
   -4.7128   -2.7209    0.0000 C   0  0  0  0  0  0  0  0  0  0  0  0
   -3.9983   -2.3084    0.0000 C   0  0  0  0  0  0  0  0  0  0  0  0
   -3.2839   -2.7209    0.0000 C   0  0  0  0  0  0  0  0  0  0  0  0
   -3.2839   -3.5459    0.0000 C   0  0  0  0  0  0  0  0  0  0  0  0
   -3.9983   -1.4834    0.0000 N   0  0  0  0  0  0  0  0  0  0  0  0
   -3.2839   -1.0709    0.0000 C   0  0  0  0  0  0  0  0  0  0  0  0
   -4.7128   -1.0709    0.0000 C   0  0  0  0  0  0  0  0  0  0  0  0
   -5.4273   -4.7834    0.0000 N   0  0  0  0  0  0  0  0  0  0  0  0
   -6.1418   -5.1959    0.0000 C   0  0  0  0  0  0  0  0  0  0  0  0
   -5.4273   -3.9584    0.0000 C   0  0  0  0  0  0  0  0  0  0  0  0
   -5.0917   -3.2048    0.0000 O   0  0  0  0  0  0  0  0  0  0  0  0
   -6.1418   -3.5459    0.0000 C   0  0  2  0  0  0  0  0  0  0  0  0
   -5.8868   -2.7613    0.0000 C   0  0  0  0  0  0  0  0  0  0  0  0
   -6.5543   -2.2764    0.0000 C   0  0  0  0  0  0  0  0  0  0  0  0
   -7.2217   -2.7613    0.0000 C   0  0  0  0  0  0  0  0  0  0  0  0
   -6.9668   -3.5459    0.0000 N   0  0  0  0  0  0  0  0  0  0  0  0
   -6.8562   -3.9584    0.0000 C   0  0  0  0  0  0  0  0  0  0  0  0
   -6.2017   -4.4607    0.0000 O   0  0  0  0  0  0  0  0  0  0  0  0
   -6.3247   -9.1954    0.0000 C   0  0  0  0  0  0  0  0  0  0  0  0
   -5.9892   -9.9491    0.0000 C   0  0  0  0  0  0  0  0  0  0  0  0
   -6.4741  -10.6165    0.0000 C   0  0  0  0  0  0  0  0  0  0  0  0
   -7.2946  -10.5303    0.0000 C   0  0  0  0  0  0  0  0  0  0  0  0
   -7.6301   -9.7766    0.0000 C   0  0  0  0  0  0  0  0  0  0  0  0
   -7.1452   -9.1092    0.0000 C   0  0  0  0  0  0  0  0  0  0  0  0
  1  2  1  0  0  0  0
  3  2  1  6  0  0  0
  3  4  1  0  0  0  0
  4  5  1  0  0  0  0
  5  6  2  0  0  0  0
  5  7  1  0  0  0  0
  7  8  1  6  0  0  0
  8  9  1  0  0  0  0
  9 10  2  0  0  0  0
  9 11  1  0  0  0  0
 11 12  4  0  0  0  0
 12 13  1  0  0  0  0
 12 14  4  0  0  0  0
 14 15  4  0  0  0  0
 15 16  4  0  0  0  0
 16 17  4  0  0  0  0
 11 17  4  0  0  0  0
  7 18  1  0  0  0  0
 18 19  1  1  0  0  0
 18 20  1  0  0  0  0
 20 21  1  0  0  0  0
 21 22  2  0  0  0  0
 21 23  1  0  0  0  0
 23 24  1  0  0  0  0
 24 25  1  0  0  0  0
 25 26  2  0  0  0  0
 25 27  1  0  0  0  0
 27 28  1  0  0  0  0
 28 29  1  0  0  0  0
 29 30  2  0  0  0  0
 29 31  1  0  0  0  0
 31 32  1  1  0  0  0
 32 33  1  0  0  0  0
 34 33  1  6  0  0  0
 34 35  1  0  0  0  0
 35 36  1  0  0  0  0
 36 37  1  0  0  0  0
 37 38  1  0  0  0  0
 38 39  1  0  0  0  0
 34 39  1  0  0  0  0
 39 40  1  0  0  0  0
 40 41  1  0  0  0  0
 36 41  1  0  0  0  0
 31 42  1  0  0  0  0
 42 43  1  0  0  0  0
 27 43  1  1  0  0  0
 43 44  1  0  0  0  0
 44 45  2  0  0  0  0
 44 46  1  0  0  0  0
 46 47  1  1  0  0  0
 47 48  1  0  0  0  0
 48 49  4  0  0  0  0
 49 50  4  0  0  0  0
 50 51  4  0  0  0  0
 51 52  4  0  0  0  0
 52 53  4  0  0  0  0
 48 53  4  0  0  0  0
 51 54  1  0  0  0  0
 54 55  1  0  0  0  0
 54 56  1  0  0  0  0
 46 57  1  0  0  0  0
 57 58  1  0  0  0  0
 57 59  1  0  0  0  0
 59 60  2  0  0  0  0
 59 61  1  0  0  0  0
 61 62  1  0  0  0  0
 62 63  1  0  0  0  0
 63 64  1  0  0  0  0
 64 65  1  0  0  0  0
 61 65  1  1  0  0  0
 65 66  1  0  0  0  0
  3 66  1  0  0  0  0
 66 67  2  0  0  0  0
 23 68  1  1  0  0  0
 68 69  4  0  0  0  0
 69 70  4  0  0  0  0
 70 71  4  0  0  0  0
 71 72  4  0  0  0  0
 72 73  4  0  0  0  0
 68 73  4  0  0  0  0
M  END
>  <ID>
2349

>  <PREFERRED_NAME>
quinupristin

>  <CAS_RN>
120138-50-3

>  <SYNONYMS>
quinupristin
quinupristin mesilate
quinupristin mesylate

>  <URL>
http://drugcentral.org/drugcard/2349/view

$$$$
