quizartinib
  -INDIGO-06102311212D

 40 45  0  0  0  0  0  0  0  0999 V2000
   11.6963    0.5693    0.0000 C   0  0  0  0  0  0  0  0  0  0  0  0
   10.8743    0.4993    0.0000 C   0  0  0  0  0  0  0  0  0  0  0  0
   10.8042    1.3213    0.0000 C   0  0  0  0  0  0  0  0  0  0  0  0
   10.9443   -0.3228    0.0000 C   0  0  0  0  0  0  0  0  0  0  0  0
   10.0522    0.4292    0.0000 C   0  0  0  0  0  0  0  0  0  0  0  0
    9.6257   -0.2770    0.0000 C   0  0  0  0  0  0  0  0  0  0  0  0
    8.8223   -0.0896    0.0000 C   0  0  0  0  0  0  0  0  0  0  0  0
    8.1984   -0.6294    0.0000 N   0  0  0  0  0  0  0  0  0  0  0  0
    7.4190   -0.3591    0.0000 C   0  0  0  0  0  0  0  0  0  0  0  0
    7.2634    0.4511    0.0000 O   0  0  0  0  0  0  0  0  0  0  0  0
    6.7951   -0.8989    0.0000 N   0  0  0  0  0  0  0  0  0  0  0  0
    6.0157   -0.6285    0.0000 C   0  0  0  0  0  0  0  0  0  0  0  0
    5.3918   -1.1684    0.0000 C   0  0  0  0  0  0  0  0  0  0  0  0
    4.6124   -0.8980    0.0000 C   0  0  0  0  0  0  0  0  0  0  0  0
    4.4568   -0.0878    0.0000 C   0  0  0  0  0  0  0  0  0  0  0  0
    5.0807    0.4520    0.0000 C   0  0  0  0  0  0  0  0  0  0  0  0
    5.8601    0.1816    0.0000 C   0  0  0  0  0  0  0  0  0  0  0  0
    3.6774    0.1825    0.0000 C   0  0  0  0  0  0  0  0  0  0  0  0
    3.0005   -0.2892    0.0000 C   0  0  0  0  0  0  0  0  0  0  0  0
    2.3427    0.2088    0.0000 N   0  0  0  0  0  0  0  0  0  0  0  0
    2.6131    0.9883    0.0000 C   0  0  0  0  0  0  0  0  0  0  0  0
    1.9554    1.4863    0.0000 S   0  0  0  0  0  0  0  0  0  0  0  0
    1.2785    1.0146    0.0000 C   0  0  0  0  0  0  0  0  0  0  0  0
    1.5179    0.2251    0.0000 C   0  0  0  0  0  0  0  0  0  0  0  0
    0.9539   -0.3770    0.0000 C   0  0  0  0  0  0  0  0  0  0  0  0
    0.1505   -0.1896    0.0000 C   0  0  0  0  0  0  0  0  0  0  0  0
   -0.0890    0.5999    0.0000 C   0  0  0  0  0  0  0  0  0  0  0  0
   -0.8924    0.7873    0.0000 O   0  0  0  0  0  0  0  0  0  0  0  0
   -1.1318    1.5768    0.0000 C   0  0  0  0  0  0  0  0  0  0  0  0
   -1.9353    1.7642    0.0000 C   0  0  0  0  0  0  0  0  0  0  0  0
   -2.1747    2.5537    0.0000 N   0  0  0  0  0  0  0  0  0  0  0  0
   -2.9781    2.7411    0.0000 C   0  0  0  0  0  0  0  0  0  0  0  0
   -3.2175    3.5306    0.0000 C   0  0  0  0  0  0  0  0  0  0  0  0
   -2.6535    4.1327    0.0000 O   0  0  0  0  0  0  0  0  0  0  0  0
   -1.8501    3.9453    0.0000 C   0  0  0  0  0  0  0  0  0  0  0  0
   -1.6107    3.1558    0.0000 C   0  0  0  0  0  0  0  0  0  0  0  0
    0.4750    1.2020    0.0000 C   0  0  0  0  0  0  0  0  0  0  0  0
    3.4379    0.9720    0.0000 N   0  0  0  0  0  0  0  0  0  0  0  0
    8.7523    0.7324    0.0000 N   0  0  0  0  0  0  0  0  0  0  0  0
    9.5124    1.0531    0.0000 O   0  0  0  0  0  0  0  0  0  0  0  0
  1  2  1  0  0  0  0
  2  3  1  0  0  0  0
  2  4  1  0  0  0  0
  2  5  1  0  0  0  0
  5  6  4  0  0  0  0
  6  7  4  0  0  0  0
  7  8  1  0  0  0  0
  8  9  1  0  0  0  0
  9 10  2  0  0  0  0
  9 11  1  0  0  0  0
 11 12  1  0  0  0  0
 12 13  4  0  0  0  0
 13 14  4  0  0  0  0
 14 15  4  0  0  0  0
 15 16  4  0  0  0  0
 16 17  4  0  0  0  0
 12 17  4  0  0  0  0
 15 18  1  0  0  0  0
 18 19  4  0  0  0  0
 19 20  4  0  0  0  0
 20 21  4  0  0  0  0
 21 22  4  0  0  0  0
 22 23  4  0  0  0  0
 23 24  4  0  0  0  0
 20 24  4  0  0  0  0
 24 25  4  0  0  0  0
 25 26  4  0  0  0  0
 26 27  4  0  0  0  0
 27 28  1  0  0  0  0
 28 29  1  0  0  0  0
 29 30  1  0  0  0  0
 30 31  1  0  0  0  0
 31 32  1  0  0  0  0
 32 33  1  0  0  0  0
 33 34  1  0  0  0  0
 34 35  1  0  0  0  0
 35 36  1  0  0  0  0
 31 36  1  0  0  0  0
 27 37  4  0  0  0  0
 23 37  4  0  0  0  0
 21 38  4  0  0  0  0
 18 38  4  0  0  0  0
  7 39  4  0  0  0  0
 39 40  4  0  0  0  0
  5 40  4  0  0  0  0
M  END
>  <ID>
5341

>  <PREFERRED_NAME>
quizartinib

>  <CAS_RN>
950769-58-1

>  <SYNONYMS>
quizartinib
quizartinib hydrochloride
quizartinib dihydrochloride
vanflyta
AC220
AC010220

>  <URL>
http://drugcentral.org/drugcard/5341/view

$$$$
