radotinib
  -INDIGO-06102311182D

 39 43  0  0  0  0  0  0  0  0999 V2000
    5.0013   -7.8375    0.0000 C   0  0  0  0  0  0  0  0  0  0  0  0
    5.0013   -8.6625    0.0000 C   0  0  0  0  0  0  0  0  0  0  0  0
    5.6687   -9.1474    0.0000 C   0  0  0  0  0  0  0  0  0  0  0  0
    5.4138   -9.9320    0.0000 N   0  0  0  0  0  0  0  0  0  0  0  0
    4.5888   -9.9320    0.0000 C   0  0  0  0  0  0  0  0  0  0  0  0
    4.3339   -9.1474    0.0000 N   0  0  0  0  0  0  0  0  0  0  0  0
    5.8987  -10.5995    0.0000 C   0  0  0  0  0  0  0  0  0  0  0  0
    6.7192  -10.5132    0.0000 C   0  0  0  0  0  0  0  0  0  0  0  0
    7.2041  -11.1807    0.0000 C   0  0  0  0  0  0  0  0  0  0  0  0
    8.0246  -11.0945    0.0000 N   0  0  0  0  0  0  0  0  0  0  0  0
    8.5095  -11.7619    0.0000 C   0  0  0  0  0  0  0  0  0  0  0  0
    8.1740  -12.5156    0.0000 O   0  0  0  0  0  0  0  0  0  0  0  0
    9.3300  -11.6757    0.0000 C   0  0  0  0  0  0  0  0  0  0  0  0
    9.6656  -10.9220    0.0000 C   0  0  0  0  0  0  0  0  0  0  0  0
   10.4860  -10.8357    0.0000 C   0  0  0  0  0  0  0  0  0  0  0  0
   10.9710  -11.5032    0.0000 C   0  0  0  0  0  0  0  0  0  0  0  0
   11.7914  -11.4169    0.0000 C   0  0  0  0  0  0  0  0  0  0  0  0
   10.6354  -12.2569    0.0000 C   0  0  0  0  0  0  0  0  0  0  0  0
   11.1203  -12.9243    0.0000 N   0  0  0  0  0  0  0  0  0  0  0  0
   11.9408  -12.8381    0.0000 C   0  0  0  0  0  0  0  0  0  0  0  0
   12.2764  -12.0844    0.0000 N   0  0  0  0  0  0  0  0  0  0  0  0
   13.0969  -11.9981    0.0000 C   0  0  0  0  0  0  0  0  0  0  0  0
   13.5818  -12.6656    0.0000 C   0  0  0  0  0  0  0  0  0  0  0  0
   13.2462  -13.4193    0.0000 C   0  0  0  0  0  0  0  0  0  0  0  0
   12.4257  -13.5055    0.0000 N   0  0  0  0  0  0  0  0  0  0  0  0
   13.7311  -14.0867    0.0000 C   0  0  0  0  0  0  0  0  0  0  0  0
   14.5516  -14.0005    0.0000 C   0  0  0  0  0  0  0  0  0  0  0  0
   15.0365  -14.6679    0.0000 N   0  0  0  0  0  0  0  0  0  0  0  0
   14.7010  -15.4216    0.0000 C   0  0  0  0  0  0  0  0  0  0  0  0
   13.8805  -15.5078    0.0000 C   0  0  0  0  0  0  0  0  0  0  0  0
   13.3956  -14.8404    0.0000 N   0  0  0  0  0  0  0  0  0  0  0  0
    9.8149  -12.3431    0.0000 C   0  0  0  0  0  0  0  0  0  0  0  0
    6.8686  -11.9344    0.0000 C   0  0  0  0  0  0  0  0  0  0  0  0
    6.0481  -12.0206    0.0000 C   0  0  0  0  0  0  0  0  0  0  0  0
    5.5632  -11.3532    0.0000 C   0  0  0  0  0  0  0  0  0  0  0  0
    5.7125  -12.7743    0.0000 C   0  0  0  0  0  0  0  0  0  0  0  0
    5.3770  -13.5279    0.0000 F   0  0  0  0  0  0  0  0  0  0  0  0
    4.9589  -12.4387    0.0000 F   0  0  0  0  0  0  0  0  0  0  0  0
    6.4662  -13.1098    0.0000 F   0  0  0  0  0  0  0  0  0  0  0  0
  1  2  1  0  0  0  0
  2  3  4  0  0  0  0
  3  4  4  0  0  0  0
  4  5  4  0  0  0  0
  5  6  4  0  0  0  0
  2  6  4  0  0  0  0
  4  7  1  0  0  0  0
  7  8  4  0  0  0  0
  8  9  4  0  0  0  0
  9 10  1  0  0  0  0
 10 11  1  0  0  0  0
 11 12  2  0  0  0  0
 11 13  1  0  0  0  0
 13 14  4  0  0  0  0
 14 15  4  0  0  0  0
 15 16  4  0  0  0  0
 16 17  1  0  0  0  0
 16 18  4  0  0  0  0
 18 19  1  0  0  0  0
 19 20  1  0  0  0  0
 20 21  4  0  0  0  0
 21 22  4  0  0  0  0
 22 23  4  0  0  0  0
 23 24  4  0  0  0  0
 24 25  4  0  0  0  0
 20 25  4  0  0  0  0
 24 26  1  0  0  0  0
 26 27  4  0  0  0  0
 27 28  4  0  0  0  0
 28 29  4  0  0  0  0
 29 30  4  0  0  0  0
 30 31  4  0  0  0  0
 26 31  4  0  0  0  0
 18 32  4  0  0  0  0
 13 32  4  0  0  0  0
  9 33  4  0  0  0  0
 33 34  4  0  0  0  0
 34 35  4  0  0  0  0
  7 35  4  0  0  0  0
 34 36  1  0  0  0  0
 36 37  1  0  0  0  0
 36 38  1  0  0  0  0
 36 39  1  0  0  0  0
M  END
>  <ID>
5188

>  <PREFERRED_NAME>
radotinib

>  <CAS_RN>
926037-48-1

>  <SYNONYMS>
radotinib
IY5511HCl
radotinib dihydrochloride
radotinib hydrochloride
IY-5511
IY5511
supect

>  <URL>
http://drugcentral.org/drugcard/5188/view

$$$$
