ramipril
  -INDIGO-06102311042D

 30 32  0  0  1  0  0  0  0  0999 V2000
   -3.2784   -3.0218    0.0000 C   0  0  0  0  0  0  0  0  0  0  0  0
   -2.4682   -3.1777    0.0000 C   0  0  0  0  0  0  0  0  0  0  0  0
   -1.9281   -2.5541    0.0000 O   0  0  0  0  0  0  0  0  0  0  0  0
   -1.1180   -2.7100    0.0000 C   0  0  0  0  0  0  0  0  0  0  0  0
   -0.8480   -3.4896    0.0000 O   0  0  0  0  0  0  0  0  0  0  0  0
   -0.5779   -2.0864    0.0000 C   0  0  2  0  0  0  0  0  0  0  0  0
   -0.8480   -1.3068    0.0000 C   0  0  0  0  0  0  0  0  0  0  0  0
   -1.6581   -1.1509    0.0000 C   0  0  0  0  0  0  0  0  0  0  0  0
   -1.9281   -0.3713    0.0000 C   0  0  0  0  0  0  0  0  0  0  0  0
   -2.7383   -0.2154    0.0000 C   0  0  0  0  0  0  0  0  0  0  0  0
   -3.0083    0.5641    0.0000 C   0  0  0  0  0  0  0  0  0  0  0  0
   -2.4682    1.1878    0.0000 C   0  0  0  0  0  0  0  0  0  0  0  0
   -1.6581    1.0318    0.0000 C   0  0  0  0  0  0  0  0  0  0  0  0
   -1.3880    0.2523    0.0000 C   0  0  0  0  0  0  0  0  0  0  0  0
    0.2322   -2.2423    0.0000 N   0  0  0  0  0  0  0  0  0  0  0  0
    0.5023   -3.0218    0.0000 C   0  0  1  0  0  0  0  0  0  0  0  0
   -0.0378   -3.6455    0.0000 C   0  0  0  0  0  0  0  0  0  0  0  0
    1.3124   -3.1777    0.0000 C   0  0  0  0  0  0  0  0  0  0  0  0
    1.5824   -3.9573    0.0000 O   0  0  0  0  0  0  0  0  0  0  0  0
    1.8525   -2.5541    0.0000 N   0  0  0  0  0  0  0  0  0  0  0  0
    1.6654   -1.7506    0.0000 C   0  0  1  0  0  0  0  0  0  0  0  0
    1.0418   -1.2105    0.0000 C   0  0  0  0  0  0  0  0  0  0  0  0
    1.3627   -0.4505    0.0000 C   0  0  0  0  0  0  0  0  0  0  0  0
    2.1847   -0.5208    0.0000 C   0  0  0  0  0  0  0  0  0  0  0  0
    2.3718   -1.3244    0.0000 C   0  0  1  0  0  0  0  0  0  0  0  0
    2.9954   -1.8644    0.0000 C   0  0  0  0  0  0  0  0  0  0  0  0
    2.6745   -2.6245    0.0000 C   0  0  1  0  0  0  0  0  0  0  0  0
    3.1007   -3.3308    0.0000 C   0  0  0  0  0  0  0  0  0  0  0  0
    2.7021   -4.0531    0.0000 O   0  0  0  0  0  0  0  0  0  0  0  0
    3.9256   -3.3149    0.0000 O   0  0  0  0  0  0  0  0  0  0  0  0
  1  2  1  0  0  0  0
  2  3  1  0  0  0  0
  3  4  1  0  0  0  0
  4  5  2  0  0  0  0
  4  6  1  0  0  0  0
  6  7  1  0  0  0  0
  7  8  1  0  0  0  0
  8  9  1  0  0  0  0
  9 10  4  0  0  0  0
 10 11  4  0  0  0  0
 11 12  4  0  0  0  0
 12 13  4  0  0  0  0
 13 14  4  0  0  0  0
  9 14  4  0  0  0  0
  6 15  1  6  0  0  0
 15 16  1  0  0  0  0
 16 17  1  6  0  0  0
 16 18  1  0  0  0  0
 18 19  2  0  0  0  0
 18 20  1  0  0  0  0
 21 20  1  1  0  0  0
 21 22  1  0  0  0  0
 22 23  1  0  0  0  0
 23 24  1  0  0  0  0
 25 24  1  1  0  0  0
 21 25  1  0  0  0  0
 25 26  1  0  0  0  0
 26 27  1  0  0  0  0
 20 27  1  0  0  0  0
 27 28  1  1  0  0  0
 28 29  1  0  0  0  0
 28 30  2  0  0  0  0
M  END
>  <ID>
2356

>  <PREFERRED_NAME>
ramipril

>  <CAS_RN>
87333-19-5

>  <SYNONYMS>
ramipril
HOE498
HOE-498

>  <URL>
http://drugcentral.org/drugcard/2356/view

$$$$
