relebactam
  -INDIGO-06102311212D

 23 25  0  0  1  0  0  0  0  0999 V2000
   -0.8666   -2.0033    0.0000 O   0  0  0  0  0  0  0  0  0  0  0  0
   -0.8050   -1.1806    0.0000 S   0  0  0  0  0  0  0  0  0  0  0  0
    0.0177   -1.2423    0.0000 O   0  0  0  0  0  0  0  0  0  0  0  0
   -1.6276   -1.1190    0.0000 O   0  0  0  0  0  0  0  0  0  0  0  0
   -0.7433   -0.3580    0.0000 O   0  0  0  0  0  0  0  0  0  0  0  0
    0.0000    0.0000    0.0000 N   0  0  0  0  0  0  0  0  0  0  0  0
    0.6450   -0.5144    0.0000 C   0  0  1  0  0  0  0  0  0  0  0  0
    0.8767    0.4125    0.0000 C   0  0  0  0  0  0  0  0  0  0  0  0
    0.6450    1.3394    0.0000 N   0  0  2  0  0  0  0  0  0  0  0  0
    1.4493    1.1558    0.0000 C   0  0  1  0  0  0  0  0  0  0  0  0
    1.8073    0.4125    0.0000 C   0  0  0  0  0  0  0  0  0  0  0  0
    1.4493   -0.3308    0.0000 C   0  0  0  0  0  0  0  0  0  0  0  0
    1.9637    1.8008    0.0000 C   0  0  0  0  0  0  0  0  0  0  0  0
    2.7795    1.6779    0.0000 O   0  0  0  0  0  0  0  0  0  0  0  0
    1.6623    2.5688    0.0000 N   0  0  0  0  0  0  0  0  0  0  0  0
    2.1767    3.2138    0.0000 C   0  0  0  0  0  0  0  0  0  0  0  0
    1.8753    3.9818    0.0000 C   0  0  0  0  0  0  0  0  0  0  0  0
    2.3897    4.6268    0.0000 C   0  0  0  0  0  0  0  0  0  0  0  0
    3.2054    4.5038    0.0000 N   0  0  0  0  0  0  0  0  0  0  0  0
    3.5068    3.7358    0.0000 C   0  0  0  0  0  0  0  0  0  0  0  0
    2.9925    3.0908    0.0000 C   0  0  0  0  0  0  0  0  0  0  0  0
    0.0000    0.8250    0.0000 C   0  0  0  0  0  0  0  0  0  0  0  0
   -0.7433    1.1830    0.0000 O   0  0  0  0  0  0  0  0  0  0  0  0
  1  2  1  0  0  0  0
  2  3  2  0  0  0  0
  2  4  2  0  0  0  0
  2  5  1  0  0  0  0
  5  6  1  0  0  0  0
  6  7  1  0  0  0  0
  7  8  1  6  0  0  0
  9  8  1  6  0  0  0
  9 10  1  0  0  0  0
 10 11  1  0  0  0  0
 11 12  1  0  0  0  0
  7 12  1  0  0  0  0
 10 13  1  6  0  0  0
 13 14  2  0  0  0  0
 13 15  1  0  0  0  0
 15 16  1  0  0  0  0
 16 17  1  0  0  0  0
 17 18  1  0  0  0  0
 18 19  1  0  0  0  0
 19 20  1  0  0  0  0
 20 21  1  0  0  0  0
 16 21  1  0  0  0  0
  9 22  1  0  0  0  0
  6 22  1  0  0  0  0
 22 23  2  0  0  0  0
M  END
>  <ID>
5342

>  <PREFERRED_NAME>
relebactam

>  <CAS_RN>
1174018-99-5

>  <SYNONYMS>
relebactam
recarbrio

>  <URL>
http://drugcentral.org/drugcard/5342/view

$$$$
