remikiren
  -INDIGO-06102311142D

 44 47  0  0  1  0  0  0  0  0999 V2000
   -2.6217   -4.9046    0.0000 C   0  0  0  0  0  0  0  0  0  0  0  0
   -1.8116   -4.7486    0.0000 C   0  0  0  0  0  0  0  0  0  0  0  0
   -1.6557   -5.5588    0.0000 C   0  0  0  0  0  0  0  0  0  0  0  0
   -1.9675   -3.9385    0.0000 C   0  0  0  0  0  0  0  0  0  0  0  0
   -1.0015   -4.5927    0.0000 S   0  0  0  0  0  0  0  0  0  0  0  0
   -0.8455   -5.4029    0.0000 O   0  0  0  0  0  0  0  0  0  0  0  0
   -1.1574   -3.7826    0.0000 O   0  0  0  0  0  0  0  0  0  0  0  0
   -0.1913   -4.4368    0.0000 C   0  0  0  0  0  0  0  0  0  0  0  0
    0.0787   -3.6573    0.0000 C   0  0  1  0  0  0  0  0  0  0  0  0
   -0.4614   -3.0336    0.0000 C   0  0  0  0  0  0  0  0  0  0  0  0
   -0.1913   -2.2541    0.0000 C   0  0  0  0  0  0  0  0  0  0  0  0
   -0.7314   -1.6304    0.0000 C   0  0  0  0  0  0  0  0  0  0  0  0
   -0.4614   -0.8509    0.0000 C   0  0  0  0  0  0  0  0  0  0  0  0
    0.3488   -0.6950    0.0000 C   0  0  0  0  0  0  0  0  0  0  0  0
    0.8889   -1.3186    0.0000 C   0  0  0  0  0  0  0  0  0  0  0  0
    0.6188   -2.0982    0.0000 C   0  0  0  0  0  0  0  0  0  0  0  0
    0.8889   -3.5014    0.0000 C   0  0  0  0  0  0  0  0  0  0  0  0
    1.1589   -2.7218    0.0000 O   0  0  0  0  0  0  0  0  0  0  0  0
    1.4289   -4.1250    0.0000 N   0  0  0  0  0  0  0  0  0  0  0  0
    2.2391   -3.9691    0.0000 C   0  0  1  0  0  0  0  0  0  0  0  0
    2.5091   -3.1895    0.0000 C   0  0  0  0  0  0  0  0  0  0  0  0
    3.3193   -3.0336    0.0000 C   0  0  0  0  0  0  0  0  0  0  0  0
    3.6693   -2.2866    0.0000 C   0  0  0  0  0  0  0  0  0  0  0  0
    4.4880   -2.3886    0.0000 N   0  0  0  0  0  0  0  0  0  0  0  0
    4.6439   -3.1988    0.0000 C   0  0  0  0  0  0  0  0  0  0  0  0
    3.9216   -3.5974    0.0000 N   0  0  0  0  0  0  0  0  0  0  0  0
    2.7792   -4.5927    0.0000 C   0  0  0  0  0  0  0  0  0  0  0  0
    2.5091   -5.3723    0.0000 O   0  0  0  0  0  0  0  0  0  0  0  0
    3.5893   -4.4368    0.0000 N   0  0  0  0  0  0  0  0  0  0  0  0
    4.1294   -5.0605    0.0000 C   0  0  1  0  0  0  0  0  0  0  0  0
    3.8593   -5.8400    0.0000 C   0  0  0  0  0  0  0  0  0  0  0  0
    4.3994   -6.4637    0.0000 C   0  0  0  0  0  0  0  0  0  0  0  0
    5.2096   -6.3077    0.0000 C   0  0  0  0  0  0  0  0  0  0  0  0
    5.7497   -6.9314    0.0000 C   0  0  0  0  0  0  0  0  0  0  0  0
    5.4796   -7.7109    0.0000 C   0  0  0  0  0  0  0  0  0  0  0  0
    4.6695   -7.8668    0.0000 C   0  0  0  0  0  0  0  0  0  0  0  0
    4.1294   -7.2432    0.0000 C   0  0  0  0  0  0  0  0  0  0  0  0
    4.9395   -4.9046    0.0000 C   0  0  1  0  0  0  0  0  0  0  0  0
    5.4796   -5.5282    0.0000 O   0  0  0  0  0  0  0  0  0  0  0  0
    5.2096   -4.1250    0.0000 C   0  0  1  0  0  0  0  0  0  0  0  0
    4.6695   -3.5014    0.0000 O   0  0  0  0  0  0  0  0  0  0  0  0
    6.0197   -3.9691    0.0000 C   0  0  0  0  0  0  0  0  0  0  0  0
    6.6433   -3.4290    0.0000 C   0  0  0  0  0  0  0  0  0  0  0  0
    6.7993   -4.2391    0.0000 C   0  0  0  0  0  0  0  0  0  0  0  0
  1  2  1  0  0  0  0
  2  3  1  0  0  0  0
  2  4  1  0  0  0  0
  2  5  1  0  0  0  0
  5  6  2  0  0  0  0
  5  7  2  0  0  0  0
  5  8  1  0  0  0  0
  9  8  1  1  0  0  0
  9 10  1  0  0  0  0
 10 11  1  0  0  0  0
 11 12  4  0  0  0  0
 12 13  4  0  0  0  0
 13 14  4  0  0  0  0
 14 15  4  0  0  0  0
 15 16  4  0  0  0  0
 11 16  4  0  0  0  0
  9 17  1  0  0  0  0
 17 18  2  0  0  0  0
 17 19  1  0  0  0  0
 20 19  1  1  0  0  0
 20 21  1  0  0  0  0
 21 22  1  0  0  0  0
 22 23  4  0  0  0  0
 23 24  4  0  0  0  0
 24 25  4  0  0  0  0
 25 26  4  0  0  0  0
 22 26  4  0  0  0  0
 20 27  1  0  0  0  0
 27 28  2  0  0  0  0
 27 29  1  0  0  0  0
 30 29  1  6  0  0  0
 30 31  1  0  0  0  0
 31 32  1  0  0  0  0
 32 33  1  0  0  0  0
 33 34  1  0  0  0  0
 34 35  1  0  0  0  0
 35 36  1  0  0  0  0
 36 37  1  0  0  0  0
 32 37  1  0  0  0  0
 30 38  1  0  0  0  0
 38 39  1  6  0  0  0
 38 40  1  0  0  0  0
 40 41  1  1  0  0  0
 40 42  1  0  0  0  0
 42 43  1  0  0  0  0
 43 44  1  0  0  0  0
 42 44  1  0  0  0  0
M  STY  1   1 DAT
M  SLB  1   1   1
M  SAL   1  1  24
M  SDT   1 MRV_IMPLICIT_H
M  SDD   1     0.0000    0.0000    DA    ALL  1       1
M  SED   1 IMPL_H1
M  END
>  <ID>
4696

>  <PREFERRED_NAME>
remikiren

>  <CAS_RN>
126222-34-2

>  <SYNONYMS>
remikiren
Ro 42-5892
Ro-42-5892

>  <URL>
http://drugcentral.org/drugcard/4696/view

$$$$
