rivaroxaban
  -INDIGO-06102311112D

 29 32  0  0  1  0  0  0  0  0999 V2000
    0.2887   -6.9386    0.0000 Cl  0  0  0  0  0  0  0  0  0  0  0  0
    0.2887   -7.7636    0.0000 C   0  0  0  0  0  0  0  0  0  0  0  0
    0.9561   -8.2485    0.0000 C   0  0  0  0  0  0  0  0  0  0  0  0
    0.7012   -9.0331    0.0000 C   0  0  0  0  0  0  0  0  0  0  0  0
   -0.1238   -9.0331    0.0000 C   0  0  0  0  0  0  0  0  0  0  0  0
   -0.3788   -8.2485    0.0000 S   0  0  0  0  0  0  0  0  0  0  0  0
   -0.6087   -9.7006    0.0000 C   0  0  0  0  0  0  0  0  0  0  0  0
   -0.2732  -10.4543    0.0000 O   0  0  0  0  0  0  0  0  0  0  0  0
   -1.4292   -9.6143    0.0000 N   0  0  0  0  0  0  0  0  0  0  0  0
   -1.9141  -10.2818    0.0000 C   0  0  0  0  0  0  0  0  0  0  0  0
   -2.7346  -10.1956    0.0000 C   0  0  1  0  0  0  0  0  0  0  0  0
   -3.2867  -10.8086    0.0000 C   0  0  0  0  0  0  0  0  0  0  0  0
   -4.0403  -10.4731    0.0000 N   0  0  0  0  0  0  0  0  0  0  0  0
   -3.9541   -9.6526    0.0000 C   0  0  0  0  0  0  0  0  0  0  0  0
   -4.5672   -9.1006    0.0000 O   0  0  0  0  0  0  0  0  0  0  0  0
   -3.1471   -9.4811    0.0000 O   0  0  0  0  0  0  0  0  0  0  0  0
   -4.7548  -10.8856    0.0000 C   0  0  0  0  0  0  0  0  0  0  0  0
   -4.7548  -11.7106    0.0000 C   0  0  0  0  0  0  0  0  0  0  0  0
   -5.4693  -12.1231    0.0000 C   0  0  0  0  0  0  0  0  0  0  0  0
   -6.1837  -11.7106    0.0000 C   0  0  0  0  0  0  0  0  0  0  0  0
   -6.1837  -10.8856    0.0000 C   0  0  0  0  0  0  0  0  0  0  0  0
   -5.4693  -10.4731    0.0000 C   0  0  0  0  0  0  0  0  0  0  0  0
   -6.8982  -12.1231    0.0000 N   0  0  0  0  0  0  0  0  0  0  0  0
   -6.8982  -12.9481    0.0000 C   0  0  0  0  0  0  0  0  0  0  0  0
   -7.6127  -13.3606    0.0000 C   0  0  0  0  0  0  0  0  0  0  0  0
   -8.3272  -12.9481    0.0000 O   0  0  0  0  0  0  0  0  0  0  0  0
   -8.3272  -12.1231    0.0000 C   0  0  0  0  0  0  0  0  0  0  0  0
   -7.6127  -11.7106    0.0000 C   0  0  0  0  0  0  0  0  0  0  0  0
   -7.6127  -10.8856    0.0000 O   0  0  0  0  0  0  0  0  0  0  0  0
  1  2  1  0  0  0  0
  2  3  4  0  0  0  0
  3  4  4  0  0  0  0
  4  5  4  0  0  0  0
  5  6  4  0  0  0  0
  2  6  4  0  0  0  0
  5  7  1  0  0  0  0
  7  8  2  0  0  0  0
  7  9  1  0  0  0  0
  9 10  1  0  0  0  0
 11 10  1  1  0  0  0
 11 12  1  0  0  0  0
 12 13  1  0  0  0  0
 13 14  1  0  0  0  0
 14 15  2  0  0  0  0
 14 16  1  0  0  0  0
 11 16  1  0  0  0  0
 13 17  1  0  0  0  0
 17 18  4  0  0  0  0
 18 19  4  0  0  0  0
 19 20  4  0  0  0  0
 20 21  4  0  0  0  0
 21 22  4  0  0  0  0
 17 22  4  0  0  0  0
 20 23  1  0  0  0  0
 23 24  1  0  0  0  0
 24 25  1  0  0  0  0
 25 26  1  0  0  0  0
 26 27  1  0  0  0  0
 27 28  1  0  0  0  0
 23 28  1  0  0  0  0
 28 29  2  0  0  0  0
M  END
>  <ID>
4182

>  <PREFERRED_NAME>
rivaroxaban

>  <CAS_RN>
366789-02-8

>  <SYNONYMS>
rivaroxaban
xarelto
BAY 59-7939

>  <URL>
http://drugcentral.org/drugcard/4182/view

$$$$
