rociverine
  -INDIGO-06102311042D

 24 25  0  0  1  0  0  0  0  0999 V2000
    1.9006   -2.0375    0.0000 C   0  0  0  0  0  0  0  0  0  0  0  0
    2.7256   -2.0375    0.0000 C   0  0  0  0  0  0  0  0  0  0  0  0
    3.1381   -2.7519    0.0000 N   0  0  0  0  0  0  0  0  0  0  0  0
    2.7256   -3.4664    0.0000 C   0  0  0  0  0  0  0  0  0  0  0  0
    1.9006   -3.4664    0.0000 C   0  0  0  0  0  0  0  0  0  0  0  0
    3.9631   -2.7519    0.0000 C   0  0  0  0  0  0  0  0  0  0  0  0
    4.3756   -3.4664    0.0000 C   0  0  0  0  0  0  0  0  0  0  0  0
    3.9631   -4.1809    0.0000 C   0  0  0  0  0  0  0  0  0  0  0  0
    5.2006   -3.4664    0.0000 O   0  0  0  0  0  0  0  0  0  0  0  0
    5.6131   -2.7519    0.0000 C   0  0  0  0  0  0  0  0  0  0  0  0
    6.3977   -3.0069    0.0000 O   0  0  0  0  0  0  0  0  0  0  0  0
    5.2006   -2.0375    0.0000 C   0  0  1  0  0  0  0  0  0  0  0  0
    4.3756   -2.0375    0.0000 C   0  0  0  0  0  0  0  0  0  0  0  0
    3.9631   -1.3230    0.0000 C   0  0  0  0  0  0  0  0  0  0  0  0
    4.3756   -0.6085    0.0000 C   0  0  0  0  0  0  0  0  0  0  0  0
    5.2006   -0.6085    0.0000 C   0  0  0  0  0  0  0  0  0  0  0  0
    5.6131   -1.3230    0.0000 C   0  0  1  0  0  0  0  0  0  0  0  0
    6.3415   -0.9357    0.0000 O   0  0  0  0  0  0  0  0  0  0  0  0
    6.3415   -1.7103    0.0000 C   0  0  0  0  0  0  0  0  0  0  0  0
    7.0412   -1.2731    0.0000 C   0  0  0  0  0  0  0  0  0  0  0  0
    7.7696   -1.6605    0.0000 C   0  0  0  0  0  0  0  0  0  0  0  0
    7.7984   -2.4849    0.0000 C   0  0  0  0  0  0  0  0  0  0  0  0
    7.0987   -2.9221    0.0000 C   0  0  0  0  0  0  0  0  0  0  0  0
    6.3703   -2.5348    0.0000 C   0  0  0  0  0  0  0  0  0  0  0  0
  1  2  1  0  0  0  0
  2  3  1  0  0  0  0
  3  4  1  0  0  0  0
  4  5  1  0  0  0  0
  3  6  1  0  0  0  0
  6  7  1  0  0  0  0
  7  8  1  0  0  0  0
  7  9  1  0  0  0  0
  9 10  1  0  0  0  0
 10 11  2  0  0  0  0
 12 10  1  1  0  0  0
 12 13  1  0  0  0  0
 13 14  1  0  0  0  0
 14 15  1  0  0  0  0
 15 16  1  0  0  0  0
 16 17  1  0  0  0  0
 12 17  1  0  0  0  0
 17 18  1  1  0  0  0
 17 19  1  6  0  0  0
 19 20  1  0  0  0  0
 20 21  1  0  0  0  0
 21 22  1  0  0  0  0
 22 23  1  0  0  0  0
 23 24  1  0  0  0  0
 19 24  1  0  0  0  0
M  END
>  <ID>
2395

>  <PREFERRED_NAME>
rociverine

>  <CAS_RN>
53716-44-2

>  <SYNONYMS>
rociverine
rilaten

>  <URL>
http://drugcentral.org/drugcard/2395/view

$$$$
