rolapitant
  -INDIGO-06102311182D

 35 38  0  0  1  0  0  0  0  0999 V2000
    4.8155    2.0034    0.0000 C   0  0  0  0  0  0  0  0  0  0  0  0
    4.0403    2.2856    0.0000 C   0  0  1  0  0  0  0  0  0  0  0  0
    3.4083    1.7553    0.0000 O   0  0  0  0  0  0  0  0  0  0  0  0
    3.5515    0.9428    0.0000 C   0  0  0  0  0  0  0  0  0  0  0  0
    2.9195    0.4125    0.0000 C   0  0  1  0  0  0  0  0  0  0  0  0
    2.5070   -0.3020    0.0000 C   0  0  0  0  0  0  0  0  0  0  0  0
    1.6820   -0.3020    0.0000 C   0  0  0  0  0  0  0  0  0  0  0  0
    1.2695    0.4125    0.0000 C   0  0  1  0  0  0  0  0  0  0  0  0
    0.7846   -0.2549    0.0000 C   0  0  0  0  0  0  0  0  0  0  0  0
    0.0000    0.0000    0.0000 C   0  0  0  0  0  0  0  0  0  0  0  0
    0.0000    0.8250    0.0000 C   0  0  0  0  0  0  0  0  0  0  0  0
   -0.6674    1.3099    0.0000 O   0  0  0  0  0  0  0  0  0  0  0  0
    0.7846    1.0799    0.0000 N   0  0  0  0  0  0  0  0  0  0  0  0
    1.6820    1.1270    0.0000 C   0  0  0  0  0  0  0  0  0  0  0  0
    2.5070    1.1270    0.0000 N   0  0  0  0  0  0  0  0  0  0  0  0
    3.5515   -0.1178    0.0000 C   0  0  0  0  0  0  0  0  0  0  0  0
    4.3268    0.1644    0.0000 C   0  0  0  0  0  0  0  0  0  0  0  0
    4.9588   -0.3659    0.0000 C   0  0  0  0  0  0  0  0  0  0  0  0
    4.8155   -1.1784    0.0000 C   0  0  0  0  0  0  0  0  0  0  0  0
    4.0403   -1.4606    0.0000 C   0  0  0  0  0  0  0  0  0  0  0  0
    3.4083   -0.9303    0.0000 C   0  0  0  0  0  0  0  0  0  0  0  0
    3.8970    3.0980    0.0000 C   0  0  0  0  0  0  0  0  0  0  0  0
    3.1218    3.3802    0.0000 C   0  0  0  0  0  0  0  0  0  0  0  0
    2.9785    4.1927    0.0000 C   0  0  0  0  0  0  0  0  0  0  0  0
    3.6105    4.7230    0.0000 C   0  0  0  0  0  0  0  0  0  0  0  0
    4.3857    4.4408    0.0000 C   0  0  0  0  0  0  0  0  0  0  0  0
    4.5290    3.6283    0.0000 C   0  0  0  0  0  0  0  0  0  0  0  0
    5.0177    4.9711    0.0000 C   0  0  0  0  0  0  0  0  0  0  0  0
    5.6497    5.5014    0.0000 F   0  0  0  0  0  0  0  0  0  0  0  0
    5.5480    4.3391    0.0000 F   0  0  0  0  0  0  0  0  0  0  0  0
    4.4874    5.6031    0.0000 F   0  0  0  0  0  0  0  0  0  0  0  0
    2.2032    4.4748    0.0000 C   0  0  0  0  0  0  0  0  0  0  0  0
    1.4280    4.7570    0.0000 F   0  0  0  0  0  0  0  0  0  0  0  0
    2.4854    5.2501    0.0000 F   0  0  0  0  0  0  0  0  0  0  0  0
    1.9211    3.6996    0.0000 F   0  0  0  0  0  0  0  0  0  0  0  0
  2  1  1  1  0  0  0
  2  3  1  0  0  0  0
  3  4  1  0  0  0  0
  5  4  1  1  0  0  0
  5  6  1  0  0  0  0
  6  7  1  0  0  0  0
  7  8  1  0  0  0  0
  8  9  1  0  0  0  0
  9 10  1  0  0  0  0
 10 11  1  0  0  0  0
 11 12  2  0  0  0  0
 11 13  1  0  0  0  0
  8 13  1  1  0  0  0
  8 14  1  0  0  0  0
 14 15  1  0  0  0  0
  5 15  1  0  0  0  0
  5 16  1  6  0  0  0
 16 17  4  0  0  0  0
 17 18  4  0  0  0  0
 18 19  4  0  0  0  0
 19 20  4  0  0  0  0
 20 21  4  0  0  0  0
 16 21  4  0  0  0  0
  2 22  1  0  0  0  0
 22 23  4  0  0  0  0
 23 24  4  0  0  0  0
 24 25  4  0  0  0  0
 25 26  4  0  0  0  0
 26 27  4  0  0  0  0
 22 27  4  0  0  0  0
 26 28  1  0  0  0  0
 28 29  1  0  0  0  0
 28 30  1  0  0  0  0
 28 31  1  0  0  0  0
 24 32  1  0  0  0  0
 32 33  1  0  0  0  0
 32 34  1  0  0  0  0
 32 35  1  0  0  0  0
M  END
>  <ID>
5027

>  <PREFERRED_NAME>
rolapitant

>  <CAS_RN>
552292-08-7

>  <SYNONYMS>
rolapitant
rolapitant hydrochloride
varubi
SCH619734
SCH 619734

>  <URL>
http://drugcentral.org/drugcard/5027/view

$$$$
