rosaprostol
  -INDIGO-06102311042D

 21 21  0  0  1  0  0  0  0  0999 V2000
   -2.2420   -2.6963    0.0000 C   0  0  0  0  0  0  0  0  0  0  0  0
   -1.4574   -2.4414    0.0000 C   0  0  0  0  0  0  0  0  0  0  0  0
   -1.2859   -1.6344    0.0000 C   0  0  0  0  0  0  0  0  0  0  0  0
   -0.5013   -1.3794    0.0000 C   0  0  0  0  0  0  0  0  0  0  0  0
   -0.3298   -0.5725    0.0000 C   0  0  0  0  0  0  0  0  0  0  0  0
    0.4549   -0.3175    0.0000 C   0  0  0  0  0  0  0  0  0  0  0  0
    0.6264    0.4894    0.0000 C   0  0  1  0  0  0  0  0  0  0  0  0
    0.0744    1.1025    0.0000 C   0  0  0  0  0  0  0  0  0  0  0  0
    0.4869    1.8170    0.0000 C   0  0  0  0  0  0  0  0  0  0  0  0
    1.2938    1.6455    0.0000 C   0  0  0  0  0  0  0  0  0  0  0  0
    1.9069    2.1975    0.0000 O   0  0  0  0  0  0  0  0  0  0  0  0
    1.3801    0.8250    0.0000 C   0  0  2  0  0  0  0  0  0  0  0  0
    2.0945    0.4125    0.0000 C   0  0  0  0  0  0  0  0  0  0  0  0
    2.8090    0.8250    0.0000 C   0  0  0  0  0  0  0  0  0  0  0  0
    3.5235    0.4125    0.0000 C   0  0  0  0  0  0  0  0  0  0  0  0
    4.2380    0.8250    0.0000 C   0  0  0  0  0  0  0  0  0  0  0  0
    4.9524    0.4125    0.0000 C   0  0  0  0  0  0  0  0  0  0  0  0
    5.6669    0.8250    0.0000 C   0  0  0  0  0  0  0  0  0  0  0  0
    6.3814    0.4125    0.0000 C   0  0  0  0  0  0  0  0  0  0  0  0
    7.0958    0.8250    0.0000 O   0  0  0  0  0  0  0  0  0  0  0  0
    6.3814   -0.4125    0.0000 O   0  0  0  0  0  0  0  0  0  0  0  0
  1  2  1  0  0  0  0
  2  3  1  0  0  0  0
  3  4  1  0  0  0  0
  4  5  1  0  0  0  0
  5  6  1  0  0  0  0
  7  6  1  1  0  0  0
  7  8  1  0  0  0  0
  8  9  1  0  0  0  0
  9 10  1  0  0  0  0
 10 11  1  0  0  0  0
 10 12  1  0  0  0  0
  7 12  1  0  0  0  0
 12 13  1  6  0  0  0
 13 14  1  0  0  0  0
 14 15  1  0  0  0  0
 15 16  1  0  0  0  0
 16 17  1  0  0  0  0
 17 18  1  0  0  0  0
 18 19  1  0  0  0  0
 19 20  1  0  0  0  0
 19 21  2  0  0  0  0
M  END
>  <ID>
2404

>  <PREFERRED_NAME>
rosaprostol

>  <CAS_RN>
56695-65-9

>  <SYNONYMS>
rosaprostol
(+/-)-Rosaprostol

>  <URL>
http://drugcentral.org/drugcard/2404/view

$$$$
