saroglitazar
  -INDIGO-06102311182D

 31 33  0  0  1  0  0  0  0  0999 V2000
    4.3460   -6.2721    0.0000 C   0  0  0  0  0  0  0  0  0  0  0  0
    5.0605   -5.8596    0.0000 C   0  0  0  0  0  0  0  0  0  0  0  0
    5.0605   -5.0346    0.0000 O   0  0  0  0  0  0  0  0  0  0  0  0
    5.7749   -4.6221    0.0000 C   0  0  1  0  0  0  0  0  0  0  0  0
    5.7749   -3.7971    0.0000 C   0  0  0  0  0  0  0  0  0  0  0  0
    5.0605   -3.3846    0.0000 C   0  0  0  0  0  0  0  0  0  0  0  0
    4.3460   -3.7971    0.0000 C   0  0  0  0  0  0  0  0  0  0  0  0
    3.6315   -3.3846    0.0000 C   0  0  0  0  0  0  0  0  0  0  0  0
    3.6315   -2.5596    0.0000 C   0  0  0  0  0  0  0  0  0  0  0  0
    2.9171   -2.1471    0.0000 O   0  0  0  0  0  0  0  0  0  0  0  0
    2.2026   -2.5596    0.0000 C   0  0  0  0  0  0  0  0  0  0  0  0
    1.4881   -2.1471    0.0000 C   0  0  0  0  0  0  0  0  0  0  0  0
    0.7737   -2.5596    0.0000 N   0  0  0  0  0  0  0  0  0  0  0  0
    0.6874   -3.3801    0.0000 C   0  0  0  0  0  0  0  0  0  0  0  0
    1.3005   -3.9321    0.0000 C   0  0  0  0  0  0  0  0  0  0  0  0
   -0.1196   -3.5516    0.0000 C   0  0  0  0  0  0  0  0  0  0  0  0
   -0.5321   -2.8372    0.0000 C   0  0  0  0  0  0  0  0  0  0  0  0
    0.0200   -2.2241    0.0000 C   0  0  0  0  0  0  0  0  0  0  0  0
   -0.1516   -1.4171    0.0000 C   0  0  0  0  0  0  0  0  0  0  0  0
   -0.9362   -1.1622    0.0000 C   0  0  0  0  0  0  0  0  0  0  0  0
   -1.1077   -0.3552    0.0000 C   0  0  0  0  0  0  0  0  0  0  0  0
   -0.4946    0.1969    0.0000 C   0  0  0  0  0  0  0  0  0  0  0  0
   -0.6661    1.0038    0.0000 S   0  0  0  0  0  0  0  0  0  0  0  0
   -1.4508    1.2588    0.0000 C   0  0  0  0  0  0  0  0  0  0  0  0
    0.2900   -0.0581    0.0000 C   0  0  0  0  0  0  0  0  0  0  0  0
    0.4615   -0.8651    0.0000 C   0  0  0  0  0  0  0  0  0  0  0  0
    4.3460   -2.1471    0.0000 C   0  0  0  0  0  0  0  0  0  0  0  0
    5.0605   -2.5596    0.0000 C   0  0  0  0  0  0  0  0  0  0  0  0
    6.4894   -5.0346    0.0000 C   0  0  0  0  0  0  0  0  0  0  0  0
    7.2039   -4.6221    0.0000 O   0  0  0  0  0  0  0  0  0  0  0  0
    6.4894   -5.8596    0.0000 O   0  0  0  0  0  0  0  0  0  0  0  0
  1  2  1  0  0  0  0
  2  3  1  0  0  0  0
  4  3  1  1  0  0  0
  4  5  1  0  0  0  0
  5  6  1  0  0  0  0
  6  7  4  0  0  0  0
  7  8  4  0  0  0  0
  8  9  4  0  0  0  0
  9 10  1  0  0  0  0
 10 11  1  0  0  0  0
 11 12  1  0  0  0  0
 12 13  1  0  0  0  0
 13 14  4  0  0  0  0
 14 15  1  0  0  0  0
 14 16  4  0  0  0  0
 16 17  4  0  0  0  0
 17 18  4  0  0  0  0
 13 18  4  0  0  0  0
 18 19  1  0  0  0  0
 19 20  4  0  0  0  0
 20 21  4  0  0  0  0
 21 22  4  0  0  0  0
 22 23  1  0  0  0  0
 23 24  1  0  0  0  0
 22 25  4  0  0  0  0
 25 26  4  0  0  0  0
 19 26  4  0  0  0  0
  9 27  4  0  0  0  0
 27 28  4  0  0  0  0
  6 28  4  0  0  0  0
  4 29  1  0  0  0  0
 29 30  1  0  0  0  0
 29 31  2  0  0  0  0
M  END
>  <ID>
5047

>  <PREFERRED_NAME>
saroglitazar

>  <CAS_RN>
495399-09-2

>  <SYNONYMS>
saroglitazar
lipaglyn
ZYH1
saroglitazar magnesium

>  <URL>
http://drugcentral.org/drugcard/5047/view

$$$$
