saxagliptin
  -INDIGO-06102311102D

 23 27  0  0  1  0  0  0  0  0999 V2000
    1.5662   -2.8960    0.0000 N   0  0  0  0  0  0  0  0  0  0  0  0
    0.8517   -2.4835    0.0000 C   0  0  2  0  0  0  0  0  0  0  0  0
    0.1373   -2.8960    0.0000 C   0  0  0  0  0  0  0  0  0  0  0  0
   -0.5772   -2.4836    0.0000 O   0  0  0  0  0  0  0  0  0  0  0  0
    0.1373   -3.7210    0.0000 N   0  0  0  0  0  0  0  0  0  0  0  0
    0.8048   -4.2059    0.0000 C   0  0  1  0  0  0  0  0  0  0  0  0
    1.3569   -4.8190    0.0000 C   0  0  0  0  0  0  0  0  0  0  0  0
    0.5499   -4.9906    0.0000 C   0  0  1  0  0  0  0  0  0  0  0  0
   -0.2751   -4.9906    0.0000 C   0  0  0  0  0  0  0  0  0  0  0  0
   -0.5301   -4.2060    0.0000 C   0  0  1  0  0  0  0  0  0  0  0  0
   -1.3147   -3.9511    0.0000 C   0  0  0  0  0  0  0  0  0  0  0  0
   -2.0993   -3.6962    0.0000 N   0  0  0  0  0  0  0  0  0  0  0  0
    0.8517   -1.6585    0.0000 C   0  0  0  0  0  0  0  0  0  0  0  0
    0.1163   -2.0322    0.0000 C   0  0  0  0  0  0  0  0  0  0  0  0
    0.5657   -1.2419    0.0000 C   0  0  0  0  0  0  0  0  0  0  0  0
    1.3012   -1.6156    0.0000 C   0  0  0  0  0  0  0  0  0  0  0  0
    2.0368   -1.2419    0.0000 C   0  0  0  0  0  0  0  0  0  0  0  0
    2.0368   -0.4945    0.0000 C   0  0  0  0  0  0  0  0  0  0  0  0
    1.3012   -0.1208    0.0000 C   0  0  0  0  0  0  0  0  0  0  0  0
    1.3012    0.7042    0.0000 O   0  0  0  0  0  0  0  0  0  0  0  0
    0.5657   -0.4945    0.0000 C   0  0  0  0  0  0  0  0  0  0  0  0
    0.8517   -0.9111    0.0000 C   0  0  0  0  0  0  0  0  0  0  0  0
    1.5873   -2.0322    0.0000 C   0  0  0  0  0  0  0  0  0  0  0  0
  2  1  1  6  0  0  0
  2  3  1  0  0  0  0
  3  4  2  0  0  0  0
  3  5  1  0  0  0  0
  5  6  1  0  0  0  0
  6  7  1  1  0  0  0
  8  7  1  1  0  0  0
  6  8  1  0  0  0  0
  8  9  1  0  0  0  0
  9 10  1  0  0  0  0
  5 10  1  0  0  0  0
 10 11  1  1  0  0  0
 11 12  3  0  0  0  0
  2 13  1  0  0  0  0
 13 14  1  0  0  0  0
 14 15  1  0  0  0  0
 15 16  1  0  0  0  0
 16 17  1  0  0  0  0
 13 23  1  0  0  0  0
 18 19  1  0  0  0  0
 19 20  1  0  0  0  0
 19 21  1  0  0  0  0
 17 23  1  0  0  0  0
 19 22  1  0  0  0  0
 13 22  1  0  0  0  0
 15 21  1  0  0  0  0
 17 18  1  0  0  0  0
M  END
>  <ID>
4114

>  <PREFERRED_NAME>
saxagliptin

>  <CAS_RN>
361442-04-8

>  <SYNONYMS>
saxagliptin
onglyza
saxagliptin hydrochloride
saxagliptin hydrate
saxagliptin HCl
BMS-477118
BMS 477118

>  <URL>
http://drugcentral.org/drugcard/4114/view

$$$$
