secretin porcine
  -INDIGO-06102311192D

215216  0  0  1  0  0  0  0  0999 V2000
   27.1376   -4.4353    0.0000 C   0  0  0  0  0  0  0  0  0  0  0  0
   27.3625   -3.6416    0.0000 C   0  0  0  0  0  0  0  0  0  0  0  0
   28.1624   -3.4395    0.0000 C   0  0  0  0  0  0  0  0  0  0  0  0
   26.7876   -3.0499    0.0000 C   0  0  0  0  0  0  0  0  0  0  0  0
   27.0126   -2.2561    0.0000 C   0  0  2  0  0  0  0  0  0  0  0  0
   26.4377   -1.6644    0.0000 N   0  0  0  0  0  0  0  0  0  0  0  0
   25.6378   -1.8665    0.0000 C   0  0  0  0  0  0  0  0  0  0  0  0
   25.4128   -2.6602    0.0000 O   0  0  0  0  0  0  0  0  0  0  0  0
   25.0629   -1.2748    0.0000 C   0  0  0  0  0  0  0  0  0  0  0  0
   24.2630   -1.4768    0.0000 N   0  0  0  0  0  0  0  0  0  0  0  0
   23.6881   -0.8851    0.0000 C   0  0  0  0  0  0  0  0  0  0  0  0
   23.9131   -0.0914    0.0000 O   0  0  0  0  0  0  0  0  0  0  0  0
   22.8882   -1.0872    0.0000 C   0  0  2  0  0  0  0  0  0  0  0  0
   22.6632   -1.8809    0.0000 C   0  0  0  0  0  0  0  0  0  0  0  0
   21.8634   -2.0829    0.0000 C   0  0  0  0  0  0  0  0  0  0  0  0
   21.6384   -2.8767    0.0000 C   0  0  0  0  0  0  0  0  0  0  0  0
   22.2133   -3.4684    0.0000 N   0  0  0  0  0  0  0  0  0  0  0  0
   20.8385   -3.0787    0.0000 O   0  0  0  0  0  0  0  0  0  0  0  0
   22.3133   -0.4955    0.0000 N   0  0  0  0  0  0  0  0  0  0  0  0
   21.5134   -0.6975    0.0000 C   0  0  0  0  0  0  0  0  0  0  0  0
   21.2885   -1.4913    0.0000 O   0  0  0  0  0  0  0  0  0  0  0  0
   20.9385   -0.1058    0.0000 C   0  0  2  0  0  0  0  0  0  0  0  0
   21.1635    0.6879    0.0000 C   0  0  0  0  0  0  0  0  0  0  0  0
   21.9634    0.8900    0.0000 C   0  0  0  0  0  0  0  0  0  0  0  0
   22.1883    1.6837    0.0000 C   0  0  0  0  0  0  0  0  0  0  0  0
   22.5383    0.2983    0.0000 C   0  0  0  0  0  0  0  0  0  0  0  0
   20.1386   -0.3079    0.0000 N   0  0  0  0  0  0  0  0  0  0  0  0
   19.5637    0.2838    0.0000 C   0  0  0  0  0  0  0  0  0  0  0  0
   19.7887    1.0776    0.0000 O   0  0  0  0  0  0  0  0  0  0  0  0
   18.7638    0.0818    0.0000 C   0  0  2  0  0  0  0  0  0  0  0  0
   18.5389   -0.7119    0.0000 C   0  0  0  0  0  0  0  0  0  0  0  0
   19.1138   -1.3036    0.0000 C   0  0  0  0  0  0  0  0  0  0  0  0
   19.9137   -1.1016    0.0000 C   0  0  0  0  0  0  0  0  0  0  0  0
   18.8888   -2.0974    0.0000 C   0  0  0  0  0  0  0  0  0  0  0  0
   18.1889    0.6735    0.0000 N   0  0  0  0  0  0  0  0  0  0  0  0
   17.3891    0.4714    0.0000 C   0  0  0  0  0  0  0  0  0  0  0  0
   17.1641   -0.3223    0.0000 O   0  0  0  0  0  0  0  0  0  0  0  0
   16.8141    1.0631    0.0000 C   0  0  2  0  0  0  0  0  0  0  0  0
   17.0391    1.8569    0.0000 C   0  0  0  0  0  0  0  0  0  0  0  0
   17.8390    2.0589    0.0000 C   0  0  0  0  0  0  0  0  0  0  0  0
   18.0640    2.8526    0.0000 C   0  0  0  0  0  0  0  0  0  0  0  0
   18.8638    3.0547    0.0000 N   0  0  0  0  0  0  0  0  0  0  0  0
   19.0888    3.8484    0.0000 C   0  0  0  0  0  0  0  0  0  0  0  0
   18.5139    4.4401    0.0000 N   0  0  0  0  0  0  0  0  0  0  0  0
   19.8887    4.0505    0.0000 N   0  0  0  0  0  0  0  0  0  0  0  0
   16.0143    0.8611    0.0000 N   0  0  0  0  0  0  0  0  0  0  0  0
   15.4394    1.4528    0.0000 C   0  0  0  0  0  0  0  0  0  0  0  0
   15.6643    2.2465    0.0000 O   0  0  0  0  0  0  0  0  0  0  0  0
   14.6395    1.2507    0.0000 C   0  0  2  0  0  0  0  0  0  0  0  0
   14.4145    0.4570    0.0000 C   0  0  0  0  0  0  0  0  0  0  0  0
   14.9894   -0.1347    0.0000 C   0  0  0  0  0  0  0  0  0  0  0  0
   14.7645   -0.9284    0.0000 C   0  0  0  0  0  0  0  0  0  0  0  0
   13.9646   -1.1305    0.0000 N   0  0  0  0  0  0  0  0  0  0  0  0
   15.3394   -1.5201    0.0000 O   0  0  0  0  0  0  0  0  0  0  0  0
   14.0646    1.8424    0.0000 N   0  0  0  0  0  0  0  0  0  0  0  0
   13.2647    1.6404    0.0000 C   0  0  0  0  0  0  0  0  0  0  0  0
   13.0397    0.8467    0.0000 O   0  0  0  0  0  0  0  0  0  0  0  0
   12.6898    2.2321    0.0000 C   0  0  2  0  0  0  0  0  0  0  0  0
   12.9147    3.0258    0.0000 C   0  0  0  0  0  0  0  0  0  0  0  0
   13.7146    3.2279    0.0000 C   0  0  0  0  0  0  0  0  0  0  0  0
   13.9396    4.0216    0.0000 C   0  0  0  0  0  0  0  0  0  0  0  0
   14.2895    2.6362    0.0000 C   0  0  0  0  0  0  0  0  0  0  0  0
   11.8899    2.0300    0.0000 N   0  0  0  0  0  0  0  0  0  0  0  0
   11.3150    2.6217    0.0000 C   0  0  0  0  0  0  0  0  0  0  0  0
   11.5399    3.4155    0.0000 O   0  0  0  0  0  0  0  0  0  0  0  0
   10.5151    2.4197    0.0000 C   0  0  2  0  0  0  0  0  0  0  0  0
   10.2901    1.6260    0.0000 C   0  0  0  0  0  0  0  0  0  0  0  0
    9.4903    1.4239    0.0000 C   0  0  0  0  0  0  0  0  0  0  0  0
    9.2653    0.6302    0.0000 C   0  0  0  0  0  0  0  0  0  0  0  0
    8.4654    0.4281    0.0000 N   0  0  0  0  0  0  0  0  0  0  0  0
    8.2405   -0.3656    0.0000 C   0  0  0  0  0  0  0  0  0  0  0  0
    8.8154   -0.9573    0.0000 N   0  0  0  0  0  0  0  0  0  0  0  0
    7.4406   -0.5676    0.0000 N   0  0  0  0  0  0  0  0  0  0  0  0
    9.9402    3.0114    0.0000 N   0  0  0  0  0  0  0  0  0  0  0  0
    9.1403    2.8093    0.0000 C   0  0  0  0  0  0  0  0  0  0  0  0
    8.9154    2.0156    0.0000 O   0  0  0  0  0  0  0  0  0  0  0  0
    8.5654    3.4010    0.0000 C   0  0  2  0  0  0  0  0  0  0  0  0
    8.7904    4.1948    0.0000 C   0  0  0  0  0  0  0  0  0  0  0  0
    7.7655    3.1990    0.0000 N   0  0  0  0  0  0  0  0  0  0  0  0
    7.1906    3.7907    0.0000 C   0  0  0  0  0  0  0  0  0  0  0  0
    7.4156    4.5844    0.0000 O   0  0  0  0  0  0  0  0  0  0  0  0
    6.3907    3.5887    0.0000 C   0  0  2  0  0  0  0  0  0  0  0  0
    6.1658    2.7949    0.0000 C   0  0  0  0  0  0  0  0  0  0  0  0
    6.7407    2.2032    0.0000 O   0  0  0  0  0  0  0  0  0  0  0  0
    5.8158    4.1803    0.0000 N   0  0  0  0  0  0  0  0  0  0  0  0
    5.0159    3.9783    0.0000 C   0  0  0  0  0  0  0  0  0  0  0  0
    4.7910    3.1846    0.0000 O   0  0  0  0  0  0  0  0  0  0  0  0
    4.4410    4.5700    0.0000 C   0  0  2  0  0  0  0  0  0  0  0  0
    4.6660    5.3637    0.0000 C   0  0  0  0  0  0  0  0  0  0  0  0
    5.4659    5.5658    0.0000 C   0  0  0  0  0  0  0  0  0  0  0  0
    5.6908    6.3595    0.0000 O   0  0  0  0  0  0  0  0  0  0  0  0
    6.0408    4.9741    0.0000 O   0  0  0  0  0  0  0  0  0  0  0  0
    3.6412    4.3680    0.0000 N   0  0  0  0  0  0  0  0  0  0  0  0
    3.0662    4.9596    0.0000 C   0  0  0  0  0  0  0  0  0  0  0  0
    3.2912    5.7534    0.0000 O   0  0  0  0  0  0  0  0  0  0  0  0
    2.2664    4.7576    0.0000 C   0  0  2  0  0  0  0  0  0  0  0  0
    2.0414    3.9639    0.0000 C   0  0  0  0  0  0  0  0  0  0  0  0
    1.2415    3.7618    0.0000 C   0  0  0  0  0  0  0  0  0  0  0  0
    1.0166    2.9681    0.0000 C   0  0  0  0  0  0  0  0  0  0  0  0
    0.2167    2.7661    0.0000 N   0  0  0  0  0  0  0  0  0  0  0  0
   -0.0083    1.9723    0.0000 C   0  0  0  0  0  0  0  0  0  0  0  0
    0.5666    1.3806    0.0000 N   0  0  0  0  0  0  0  0  0  0  0  0
   -0.8082    1.7703    0.0000 N   0  0  0  0  0  0  0  0  0  0  0  0
    1.6915    5.3493    0.0000 N   0  0  0  0  0  0  0  0  0  0  0  0
    0.8916    5.1473    0.0000 C   0  0  0  0  0  0  0  0  0  0  0  0
    0.6666    4.3535    0.0000 O   0  0  0  0  0  0  0  0  0  0  0  0
    0.3167    5.7390    0.0000 C   0  0  2  0  0  0  0  0  0  0  0  0
    0.5416    6.5327    0.0000 C   0  0  0  0  0  0  0  0  0  0  0  0
    1.3415    6.7347    0.0000 C   0  0  0  0  0  0  0  0  0  0  0  0
    1.5665    7.5285    0.0000 C   0  0  0  0  0  0  0  0  0  0  0  0
    1.9164    6.1430    0.0000 C   0  0  0  0  0  0  0  0  0  0  0  0
   -0.4832    5.5369    0.0000 N   0  0  0  0  0  0  0  0  0  0  0  0
   -1.0581    6.1286    0.0000 C   0  0  0  0  0  0  0  0  0  0  0  0
   -0.8332    6.9223    0.0000 O   0  0  0  0  0  0  0  0  0  0  0  0
   -1.8580    5.9266    0.0000 C   0  0  2  0  0  0  0  0  0  0  0  0
   -2.0830    5.1328    0.0000 C   0  0  0  0  0  0  0  0  0  0  0  0
   -2.8828    4.9308    0.0000 C   0  0  0  0  0  0  0  0  0  0  0  0
   -3.1078    4.1371    0.0000 C   0  0  0  0  0  0  0  0  0  0  0  0
   -3.9077    3.9350    0.0000 N   0  0  0  0  0  0  0  0  0  0  0  0
   -4.1327    3.1413    0.0000 C   0  0  0  0  0  0  0  0  0  0  0  0
   -3.5577    2.5496    0.0000 N   0  0  0  0  0  0  0  0  0  0  0  0
   -4.9325    2.9392    0.0000 N   0  0  0  0  0  0  0  0  0  0  0  0
   -2.4329    6.5183    0.0000 N   0  0  0  0  0  0  0  0  0  0  0  0
   -3.2328    6.3162    0.0000 C   0  0  0  0  0  0  0  0  0  0  0  0
   -3.4578    5.5225    0.0000 O   0  0  0  0  0  0  0  0  0  0  0  0
   -3.8077    6.9079    0.0000 C   0  0  2  0  0  0  0  0  0  0  0  0
   -3.5827    7.7016    0.0000 C   0  0  0  0  0  0  0  0  0  0  0  0
   -2.7829    7.9037    0.0000 O   0  0  0  0  0  0  0  0  0  0  0  0
   -4.6076    6.7059    0.0000 N   0  0  0  0  0  0  0  0  0  0  0  0
   -5.1825    7.2976    0.0000 C   0  0  0  0  0  0  0  0  0  0  0  0
   -4.9575    8.0913    0.0000 O   0  0  0  0  0  0  0  0  0  0  0  0
   -5.9824    7.0955    0.0000 C   0  0  2  0  0  0  0  0  0  0  0  0
   -6.2073    6.3018    0.0000 C   0  0  0  0  0  0  0  0  0  0  0  0
   -5.6324    5.7101    0.0000 C   0  0  0  0  0  0  0  0  0  0  0  0
   -4.8325    5.9121    0.0000 C   0  0  0  0  0  0  0  0  0  0  0  0
   -5.8574    4.9164    0.0000 C   0  0  0  0  0  0  0  0  0  0  0  0
   -6.5573    7.6872    0.0000 N   0  0  0  0  0  0  0  0  0  0  0  0
   -7.3572    7.4852    0.0000 C   0  0  0  0  0  0  0  0  0  0  0  0
   -7.5821    6.6914    0.0000 O   0  0  0  0  0  0  0  0  0  0  0  0
   -7.9321    8.0769    0.0000 C   0  0  2  0  0  0  0  0  0  0  0  0
   -7.7071    8.8706    0.0000 C   0  0  0  0  0  0  0  0  0  0  0  0
   -6.9072    9.0726    0.0000 C   0  0  0  0  0  0  0  0  0  0  0  0
   -6.6823    9.8664    0.0000 C   0  0  0  0  0  0  0  0  0  0  0  0
   -7.2572   10.4581    0.0000 O   0  0  0  0  0  0  0  0  0  0  0  0
   -5.8824   10.0684    0.0000 O   0  0  0  0  0  0  0  0  0  0  0  0
   -8.7319    7.8748    0.0000 N   0  0  0  0  0  0  0  0  0  0  0  0
   -9.3069    8.4665    0.0000 C   0  0  0  0  0  0  0  0  0  0  0  0
   -9.0819    9.2603    0.0000 O   0  0  0  0  0  0  0  0  0  0  0  0
  -10.1067    8.2645    0.0000 C   0  0  2  0  0  0  0  0  0  0  0  0
  -10.3317    7.4707    0.0000 C   0  0  0  0  0  0  0  0  0  0  0  0
   -9.7568    6.8790    0.0000 O   0  0  0  0  0  0  0  0  0  0  0  0
  -10.6817    8.8562    0.0000 N   0  0  0  0  0  0  0  0  0  0  0  0
  -11.4815    8.6541    0.0000 C   0  0  0  0  0  0  0  0  0  0  0  0
  -11.7065    7.8604    0.0000 O   0  0  0  0  0  0  0  0  0  0  0  0
  -12.0564    9.2458    0.0000 C   0  0  1  0  0  0  0  0  0  0  0  0
  -12.8563    9.0438    0.0000 N   0  0  0  0  0  0  0  0  0  0  0  0
  -13.4312    9.6355    0.0000 C   0  0  0  0  0  0  0  0  0  0  0  0
  -13.2063   10.4292    0.0000 O   0  0  0  0  0  0  0  0  0  0  0  0
  -14.2311    9.4334    0.0000 C   0  0  2  0  0  0  0  0  0  0  0  0
  -14.8060   10.0251    0.0000 C   0  0  0  0  0  0  0  0  0  0  0  0
  -15.6059    9.8231    0.0000 C   0  0  0  0  0  0  0  0  0  0  0  0
  -15.8309    9.0293    0.0000 C   0  0  0  0  0  0  0  0  0  0  0  0
  -16.6307    8.8273    0.0000 C   0  0  0  0  0  0  0  0  0  0  0  0
  -17.2057    9.4190    0.0000 C   0  0  0  0  0  0  0  0  0  0  0  0
  -16.9807   10.2127    0.0000 C   0  0  0  0  0  0  0  0  0  0  0  0
  -16.1808   10.4148    0.0000 C   0  0  0  0  0  0  0  0  0  0  0  0
  -14.4561    8.6397    0.0000 N   0  0  0  0  0  0  0  0  0  0  0  0
  -13.8812    8.0480    0.0000 C   0  0  0  0  0  0  0  0  0  0  0  0
  -13.0813    8.2500    0.0000 O   0  0  0  0  0  0  0  0  0  0  0  0
  -14.1061    7.2543    0.0000 C   0  0  1  0  0  0  0  0  0  0  0  0
  -13.5312    6.6626    0.0000 N   0  0  0  0  0  0  0  0  0  0  0  0
  -13.7562    5.8688    0.0000 C   0  0  0  0  0  0  0  0  0  0  0  0
  -14.5561    5.6668    0.0000 O   0  0  0  0  0  0  0  0  0  0  0  0
  -13.1813    5.2771    0.0000 C   0  0  0  0  0  0  0  0  0  0  0  0
  -13.4062    4.4834    0.0000 N   0  0  0  0  0  0  0  0  0  0  0  0
  -12.8313    3.8917    0.0000 C   0  0  0  0  0  0  0  0  0  0  0  0
  -12.0314    4.0938    0.0000 O   0  0  0  0  0  0  0  0  0  0  0  0
  -13.0563    3.0980    0.0000 C   0  0  2  0  0  0  0  0  0  0  0  0
  -13.8562    2.8959    0.0000 C   0  0  0  0  0  0  0  0  0  0  0  0
  -14.4311    3.4876    0.0000 C   0  0  0  0  0  0  0  0  0  0  0  0
  -15.2310    3.2856    0.0000 O   0  0  0  0  0  0  0  0  0  0  0  0
  -14.2061    4.2814    0.0000 O   0  0  0  0  0  0  0  0  0  0  0  0
  -12.4814    2.5063    0.0000 N   0  0  0  0  0  0  0  0  0  0  0  0
  -12.7063    1.7126    0.0000 C   0  0  0  0  0  0  0  0  0  0  0  0
  -13.5062    1.5105    0.0000 O   0  0  0  0  0  0  0  0  0  0  0  0
  -12.1314    1.1209    0.0000 C   0  0  2  0  0  0  0  0  0  0  0  0
  -11.3316    1.3229    0.0000 C   0  0  0  0  0  0  0  0  0  0  0  0
  -11.1066    2.1166    0.0000 O   0  0  0  0  0  0  0  0  0  0  0  0
  -12.3564    0.3271    0.0000 N   0  0  0  0  0  0  0  0  0  0  0  0
  -11.7815   -0.2646    0.0000 C   0  0  0  0  0  0  0  0  0  0  0  0
  -10.9816   -0.0625    0.0000 O   0  0  0  0  0  0  0  0  0  0  0  0
  -12.0064   -1.0583    0.0000 C   0  0  1  0  0  0  0  0  0  0  0  0
  -12.8063   -1.2603    0.0000 N   0  0  0  0  0  0  0  0  0  0  0  0
  -11.4315   -1.6500    0.0000 C   0  0  0  0  0  0  0  0  0  0  0  0
  -11.6565   -2.4437    0.0000 C   0  0  0  0  0  0  0  0  0  0  0  0
  -11.1466   -3.0923    0.0000 C   0  0  0  0  0  0  0  0  0  0  0  0
  -11.6058   -3.7777    0.0000 N   0  0  0  0  0  0  0  0  0  0  0  0
  -12.3996   -3.5527    0.0000 C   0  0  0  0  0  0  0  0  0  0  0  0
  -12.4309   -2.7283    0.0000 N   0  0  0  0  0  0  0  0  0  0  0  0
  -14.9060    7.0522    0.0000 C   0  0  1  0  0  0  0  0  0  0  0  0
  -15.1310    6.2585    0.0000 C   0  0  0  0  0  0  0  0  0  0  0  0
  -15.4809    7.6439    0.0000 O   0  0  0  0  0  0  0  0  0  0  0  0
  -11.8315   10.0396    0.0000 C   0  0  1  0  0  0  0  0  0  0  0  0
  -12.4064   10.6312    0.0000 C   0  0  0  0  0  0  0  0  0  0  0  0
  -11.0316   10.2416    0.0000 O   0  0  0  0  0  0  0  0  0  0  0  0
   27.8125   -2.0541    0.0000 C   0  0  0  0  0  0  0  0  0  0  0  0
   28.0374   -1.2603    0.0000 O   0  0  0  0  0  0  0  0  0  0  0  0
   28.3874   -2.6458    0.0000 N   0  0  0  0  0  0  0  0  0  0  0  0
   29.1872   -2.4437    0.0000 C   0  0  1  0  0  0  0  0  0  0  0  0
   29.7622   -3.0354    0.0000 C   0  0  0  0  0  0  0  0  0  0  0  0
   30.5620   -2.8334    0.0000 C   0  0  0  0  0  0  0  0  0  0  0  0
   29.5372   -3.8292    0.0000 C   0  0  0  0  0  0  0  0  0  0  0  0
   29.4122   -1.6500    0.0000 C   0  0  0  0  0  0  0  0  0  0  0  0
   28.8373   -1.0583    0.0000 N   0  0  0  0  0  0  0  0  0  0  0  0
   30.2121   -1.4480    0.0000 O   0  0  0  0  0  0  0  0  0  0  0  0
  1  2  1  0  0  0  0
  2  3  1  0  0  0  0
  2  4  1  0  0  0  0
  4  5  1  0  0  0  0
  5  6  1  6  0  0  0
  6  7  1  0  0  0  0
  7  8  2  0  0  0  0
  7  9  1  0  0  0  0
  9 10  1  0  0  0  0
 10 11  1  0  0  0  0
 11 12  2  0  0  0  0
 11 13  1  0  0  0  0
 13 14  1  0  0  0  0
 14 15  1  0  0  0  0
 15 16  1  0  0  0  0
 16 17  1  0  0  0  0
 16 18  2  0  0  0  0
 13 19  1  6  0  0  0
 19 20  1  0  0  0  0
 20 21  2  0  0  0  0
 20 22  1  0  0  0  0
 22 23  1  0  0  0  0
 23 24  1  0  0  0  0
 24 25  1  0  0  0  0
 24 26  1  0  0  0  0
 22 27  1  1  0  0  0
 27 28  1  0  0  0  0
 28 29  2  0  0  0  0
 28 30  1  0  0  0  0
 30 31  1  0  0  0  0
 31 32  1  0  0  0  0
 32 33  1  0  0  0  0
 32 34  1  0  0  0  0
 30 35  1  6  0  0  0
 35 36  1  0  0  0  0
 36 37  2  0  0  0  0
 36 38  1  0  0  0  0
 38 39  1  0  0  0  0
 39 40  1  0  0  0  0
 40 41  1  0  0  0  0
 41 42  1  0  0  0  0
 42 43  1  0  0  0  0
 43 44  1  0  0  0  0
 43 45  2  0  0  0  0
 38 46  1  1  0  0  0
 46 47  1  0  0  0  0
 47 48  2  0  0  0  0
 47 49  1  0  0  0  0
 49 50  1  0  0  0  0
 50 51  1  0  0  0  0
 51 52  1  0  0  0  0
 52 53  1  0  0  0  0
 52 54  2  0  0  0  0
 49 55  1  6  0  0  0
 55 56  1  0  0  0  0
 56 57  2  0  0  0  0
 56 58  1  0  0  0  0
 58 59  1  0  0  0  0
 59 60  1  0  0  0  0
 60 61  1  0  0  0  0
 60 62  1  0  0  0  0
 58 63  1  1  0  0  0
 63 64  1  0  0  0  0
 64 65  2  0  0  0  0
 64 66  1  0  0  0  0
 66 67  1  0  0  0  0
 67 68  1  0  0  0  0
 68 69  1  0  0  0  0
 69 70  1  0  0  0  0
 70 71  1  0  0  0  0
 71 72  1  0  0  0  0
 71 73  2  0  0  0  0
 66 74  1  6  0  0  0
 74 75  1  0  0  0  0
 75 76  2  0  0  0  0
 75 77  1  0  0  0  0
 77 78  1  1  0  0  0
 77 79  1  0  0  0  0
 79 80  1  0  0  0  0
 80 81  2  0  0  0  0
 80 82  1  0  0  0  0
 82 83  1  0  0  0  0
 83 84  1  0  0  0  0
 82 85  1  6  0  0  0
 85 86  1  0  0  0  0
 86 87  2  0  0  0  0
 86 88  1  0  0  0  0
 88 89  1  0  0  0  0
 89 90  1  0  0  0  0
 90 91  1  0  0  0  0
 90 92  2  0  0  0  0
 88 93  1  1  0  0  0
 93 94  1  0  0  0  0
 94 95  2  0  0  0  0
 94 96  1  0  0  0  0
 96 97  1  0  0  0  0
 97 98  1  0  0  0  0
 98 99  1  0  0  0  0
 99100  1  0  0  0  0
100101  1  0  0  0  0
101102  1  0  0  0  0
101103  2  0  0  0  0
 96104  1  6  0  0  0
104105  1  0  0  0  0
105106  2  0  0  0  0
105107  1  0  0  0  0
107108  1  0  0  0  0
108109  1  0  0  0  0
109110  1  0  0  0  0
109111  1  0  0  0  0
107112  1  1  0  0  0
112113  1  0  0  0  0
113114  2  0  0  0  0
113115  1  0  0  0  0
115116  1  0  0  0  0
116117  1  0  0  0  0
117118  1  0  0  0  0
118119  1  0  0  0  0
119120  1  0  0  0  0
120121  1  0  0  0  0
120122  2  0  0  0  0
115123  1  6  0  0  0
123124  1  0  0  0  0
124125  2  0  0  0  0
124126  1  0  0  0  0
126127  1  0  0  0  0
127128  1  0  0  0  0
126129  1  1  0  0  0
129130  1  0  0  0  0
130131  2  0  0  0  0
130132  1  0  0  0  0
132133  1  0  0  0  0
133134  1  0  0  0  0
134135  1  0  0  0  0
134136  1  0  0  0  0
132137  1  6  0  0  0
137138  1  0  0  0  0
138139  2  0  0  0  0
138140  1  0  0  0  0
140141  1  0  0  0  0
141142  1  0  0  0  0
142143  1  0  0  0  0
143144  1  0  0  0  0
143145  2  0  0  0  0
140146  1  1  0  0  0
146147  1  0  0  0  0
147148  2  0  0  0  0
147149  1  0  0  0  0
149150  1  0  0  0  0
150151  1  0  0  0  0
149152  1  6  0  0  0
152153  1  0  0  0  0
153154  2  0  0  0  0
153155  1  0  0  0  0
155156  1  1  0  0  0
156157  1  0  0  0  0
157158  2  0  0  0  0
157159  1  0  0  0  0
159160  1  0  0  0  0
160161  1  0  0  0  0
161162  4  0  0  0  0
162163  4  0  0  0  0
163164  4  0  0  0  0
164165  4  0  0  0  0
165166  4  0  0  0  0
161166  4  0  0  0  0
159167  1  1  0  0  0
167168  1  0  0  0  0
168169  2  0  0  0  0
168170  1  0  0  0  0
170171  1  1  0  0  0
171172  1  0  0  0  0
172173  2  0  0  0  0
172174  1  0  0  0  0
174175  1  0  0  0  0
175176  1  0  0  0  0
176177  2  0  0  0  0
176178  1  0  0  0  0
178179  1  0  0  0  0
179180  1  0  0  0  0
180181  1  0  0  0  0
180182  2  0  0  0  0
178183  1  1  0  0  0
183184  1  0  0  0  0
184185  2  0  0  0  0
184186  1  0  0  0  0
186187  1  0  0  0  0
187188  1  0  0  0  0
186189  1  6  0  0  0
189190  1  0  0  0  0
190191  2  0  0  0  0
190192  1  0  0  0  0
192193  1  6  0  0  0
192194  1  0  0  0  0
194195  1  0  0  0  0
195196  4  0  0  0  0
196197  4  0  0  0  0
197198  4  0  0  0  0
198199  4  0  0  0  0
195199  4  0  0  0  0
170200  1  0  0  0  0
200201  1  0  0  0  0
200202  1  1  0  0  0
155203  1  0  0  0  0
203204  1  0  0  0  0
203205  1  1  0  0  0
  5206  1  0  0  0  0
206207  2  0  0  0  0
206208  1  0  0  0  0
209208  1  6  0  0  0
209210  1  0  0  0  0
210211  1  0  0  0  0
210212  1  0  0  0  0
209213  1  0  0  0  0
213214  1  0  0  0  0
213215  2  0  0  0  0
M  STY  1   1 DAT
M  SLB  1   1   1
M  SAL   1  1 197
M  SDT   1 MRV_IMPLICIT_H
M  SDD   1     0.0000    0.0000    DA    ALL  1       1
M  SED   1 IMPL_H1
M  END
>  <ID>
5198

>  <PREFERRED_NAME>
secretin porcine

>  <CAS_RN>
17034-35-4

>  <SYNONYMS>
secretin porcine
secreflo
secretin synthetic porcine

>  <URL>
http://drugcentral.org/drugcard/5198/view

$$$$
