selamectin
  -INDIGO-06102311242D

 58 64  0  0  1  0  0  0  0  0999 V2000
   -0.7270    0.4723    0.0000 H   0  0  0  0  0  0  0  0  0  0  0  0
    0.0129    0.8373    0.0000 C   0  0  2  0  0  0  0  0  0  0  0  0
   -0.6215    1.3647    0.0000 O   0  0  0  0  0  0  0  0  0  0  0  0
   -0.3159    2.1310    0.0000 C   0  0  0  0  0  0  0  0  0  0  0  0
    0.5559    2.0157    0.0000 C   0  0  0  0  0  0  0  0  0  0  0  0
    1.2037    2.5265    0.0000 C   0  0  0  0  0  0  0  0  0  0  0  0
    1.0851    3.3430    0.0000 C   0  0  0  0  0  0  0  0  0  0  0  0
    1.7329    3.8539    0.0000 C   0  0  0  0  0  0  0  0  0  0  0  0
    1.6144    4.6703    0.0000 C   0  0  2  0  0  0  0  0  0  0  0  0
    0.8481    4.9759    0.0000 C   0  0  0  0  0  0  0  0  0  0  0  0
    2.2622    5.1812    0.0000 C   0  0  2  0  0  0  0  0  0  0  0  0
    2.1436    5.9976    0.0000 O   0  0  0  0  0  0  0  0  0  0  0  0
    1.3773    6.3032    0.0000 C   0  0  1  0  0  0  0  0  0  0  0  0
    2.0251    6.8141    0.0000 H   0  0  0  0  0  0  0  0  0  0  0  0
    0.7295    5.7923    0.0000 C   0  0  0  0  0  0  0  0  0  0  0  0
   -0.0368    6.0979    0.0000 C   0  0  2  0  0  0  0  0  0  0  0  0
   -0.6846    5.5870    0.0000 O   0  0  0  0  0  0  0  0  0  0  0  0
   -1.4509    5.8926    0.0000 C   0  0  0  0  0  0  0  0  0  0  0  0
   -0.1553    6.9143    0.0000 C   0  0  1  0  0  0  0  0  0  0  0  0
   -0.9217    7.2199    0.0000 O   0  0  0  0  0  0  0  0  0  0  0  0
    0.4924    7.4252    0.0000 C   0  0  2  0  0  0  0  0  0  0  0  0
    0.3739    8.2416    0.0000 C   0  0  0  0  0  0  0  0  0  0  0  0
    1.2588    7.1196    0.0000 O   0  0  0  0  0  0  0  0  0  0  0  0
    3.0285    4.8756    0.0000 C   0  0  0  0  0  0  0  0  0  0  0  0
    3.6763    5.3865    0.0000 C   0  0  0  0  0  0  0  0  0  0  0  0
    3.1470    4.0592    0.0000 C   0  0  0  0  0  0  0  0  0  0  0  0
    3.9134    3.7536    0.0000 C   0  0  0  0  0  0  0  0  0  0  0  0
    4.0319    2.9372    0.0000 C   0  0  2  0  0  0  0  0  0  0  0  0
    3.3841    2.4263    0.0000 C   0  0  0  0  0  0  0  0  0  0  0  0
    3.5026    1.6098    0.0000 C   0  0  1  0  0  0  0  0  0  0  0  0
    4.2690    1.3043    0.0000 C   0  0  0  0  0  0  0  0  0  0  0  0
    4.9167    1.8152    0.0000 C   0  0  1  0  0  0  0  0  0  0  0  0
    5.5645    2.3260    0.0000 C   0  0  0  0  0  0  0  0  0  0  0  0
    6.3309    2.0205    0.0000 C   0  0  0  0  0  0  0  0  0  0  0  0
    6.4494    1.2040    0.0000 C   0  0  2  0  0  0  0  0  0  0  0  0
    7.2157    0.8985    0.0000 C   0  0  0  0  0  0  0  0  0  0  0  0
    5.8016    0.6932    0.0000 C   0  0  2  0  0  0  0  0  0  0  0  0
    5.0353    0.9987    0.0000 O   0  0  0  0  0  0  0  0  0  0  0  0
    5.9201   -0.1233    0.0000 C   0  0  0  0  0  0  0  0  0  0  0  0
    6.6865   -0.4289    0.0000 C   0  0  0  0  0  0  0  0  0  0  0  0
    6.8050   -1.2453    0.0000 C   0  0  0  0  0  0  0  0  0  0  0  0
    6.1572   -1.7562    0.0000 C   0  0  0  0  0  0  0  0  0  0  0  0
    5.3909   -1.4506    0.0000 C   0  0  0  0  0  0  0  0  0  0  0  0
    5.2724   -0.6342    0.0000 C   0  0  0  0  0  0  0  0  0  0  0  0
    4.7982    2.6316    0.0000 O   0  0  0  0  0  0  0  0  0  0  0  0
    2.8548    1.0990    0.0000 O   0  0  0  0  0  0  0  0  0  0  0  0
    2.0885    1.4045    0.0000 C   0  0  0  0  0  0  0  0  0  0  0  0
    1.9700    2.2210    0.0000 O   0  0  0  0  0  0  0  0  0  0  0  0
    1.4407    0.8937    0.0000 C   0  0  2  0  0  0  0  0  0  0  0  0
    1.3222    1.7101    0.0000 H   0  0  0  0  0  0  0  0  0  0  0  0
    1.4733    0.0693    0.0000 C   0  0  0  0  0  0  0  0  0  0  0  0
    0.7756   -0.3711    0.0000 C   0  0  0  0  0  0  0  0  0  0  0  0
    0.8082   -1.1954    0.0000 C   0  0  0  0  0  0  0  0  0  0  0  0
    0.0454    0.0129    0.0000 C   0  0  0  0  0  0  0  0  0  0  0  0
   -0.6522   -0.4274    0.0000 N   0  0  0  0  0  0  0  0  0  0  0  0
   -1.3824   -0.0434    0.0000 O   0  0  0  0  0  0  0  0  0  0  0  0
    0.6744    1.1992    0.0000 C   0  0  1  0  0  0  0  0  0  0  0  0
    0.7244    0.3757    0.0000 O   0  0  0  0  0  0  0  0  0  0  0  0
  2  1  1  6  0  0  0
  2  3  1  0  0  0  0
  3  4  1  0  0  0  0
  4  5  1  0  0  0  0
  5  6  2  0  0  0  0
  6  7  1  0  0  0  0
  7  8  2  0  0  0  0
  8  9  1  0  0  0  0
  9 10  1  6  0  0  0
  9 11  1  0  0  0  0
 11 12  1  6  0  0  0
 13 12  1  1  0  0  0
 13 14  1  6  0  0  0
 13 15  1  0  0  0  0
 15 16  1  0  0  0  0
 16 17  1  6  0  0  0
 17 18  1  0  0  0  0
 16 19  1  0  0  0  0
 19 20  1  1  0  0  0
 19 21  1  0  0  0  0
 21 22  1  6  0  0  0
 21 23  1  0  0  0  0
 13 23  1  0  0  0  0
 11 24  1  0  0  0  0
 24 25  1  0  0  0  0
 24 26  2  0  0  0  0
 26 27  1  0  0  0  0
 27 28  1  0  0  0  0
 28 29  1  1  0  0  0
 30 29  1  1  0  0  0
 30 31  1  0  0  0  0
 31 32  1  0  0  0  0
 32 33  1  0  0  0  0
 33 34  1  0  0  0  0
 34 35  1  0  0  0  0
 35 36  1  6  0  0  0
 35 37  1  0  0  0  0
 37 38  1  0  0  0  0
 32 38  1  6  0  0  0
 37 39  1  1  0  0  0
 39 40  1  0  0  0  0
 40 41  1  0  0  0  0
 41 42  1  0  0  0  0
 42 43  1  0  0  0  0
 43 44  1  0  0  0  0
 39 44  1  0  0  0  0
 32 45  1  0  0  0  0
 28 45  1  0  0  0  0
 30 46  1  0  0  0  0
 46 47  1  0  0  0  0
 47 48  2  0  0  0  0
 47 49  1  0  0  0  0
 49 50  1  1  0  0  0
 49 51  1  0  0  0  0
 51 52  2  0  0  0  0
 52 53  1  0  0  0  0
 52 54  1  0  0  0  0
  2 54  1  0  0  0  0
 54 55  2  0  0  0  0
 55 56  1  0  0  0  0
 49 57  1  0  0  0  0
  2 57  1  0  0  0  0
  5 57  1  0  0  0  0
 57 58  1  6  0  0  0
M  END
>  <ID>
5617

>  <PREFERRED_NAME>
selamectin

>  <CAS_RN>
220119-17-5

>  <SYNONYMS>
selamectin
UK-124114
revolution

>  <URL>
http://drugcentral.org/drugcard/5617/view

$$$$
