sermorelin
  -INDIGO-06102311052D

236238  0  0  1  0  0  0  0  0999 V2000
  -22.9546    6.7722    0.0000 C   0  0  0  0  0  0  0  0  0  0  0  0
  -22.1309    6.8183    0.0000 C   0  0  0  0  0  0  0  0  0  0  0  0
  -21.7589    7.5546    0.0000 C   0  0  2  0  0  0  0  0  0  0  0  0
  -22.2106    8.2450    0.0000 C   0  0  0  0  0  0  0  0  0  0  0  0
  -20.9352    7.6006    0.0000 C   0  0  2  0  0  0  0  0  0  0  0  0
  -20.4835    6.9103    0.0000 N   0  0  0  0  0  0  0  0  0  0  0  0
  -20.8555    6.1739    0.0000 C   0  0  0  0  0  0  0  0  0  0  0  0
  -21.6792    6.1279    0.0000 O   0  0  0  0  0  0  0  0  0  0  0  0
  -20.4038    5.4836    0.0000 C   0  0  2  0  0  0  0  0  0  0  0  0
  -19.5800    5.5296    0.0000 C   0  0  0  0  0  0  0  0  0  0  0  0
  -20.7758    4.7472    0.0000 N   0  0  0  0  0  0  0  0  0  0  0  0
  -20.3240    4.0569    0.0000 C   0  0  0  0  0  0  0  0  0  0  0  0
  -19.5003    4.1029    0.0000 O   0  0  0  0  0  0  0  0  0  0  0  0
  -20.6960    3.3205    0.0000 C   0  0  2  0  0  0  0  0  0  0  0  0
  -21.5198    3.2745    0.0000 C   0  0  0  0  0  0  0  0  0  0  0  0
  -21.9715    3.9648    0.0000 C   0  0  0  0  0  0  0  0  0  0  0  0
  -21.5995    4.7012    0.0000 O   0  0  0  0  0  0  0  0  0  0  0  0
  -22.7952    3.9188    0.0000 O   0  0  0  0  0  0  0  0  0  0  0  0
  -20.2443    2.6302    0.0000 N   0  0  0  0  0  0  0  0  0  0  0  0
  -20.6163    1.8938    0.0000 C   0  0  0  0  0  0  0  0  0  0  0  0
  -21.4400    1.8478    0.0000 O   0  0  0  0  0  0  0  0  0  0  0  0
  -20.1646    1.2034    0.0000 C   0  0  2  0  0  0  0  0  0  0  0  0
  -19.3409    1.2495    0.0000 C   0  0  0  0  0  0  0  0  0  0  0  0
  -20.5366    0.4671    0.0000 N   0  0  0  0  0  0  0  0  0  0  0  0
  -20.0849   -0.2233    0.0000 C   0  0  0  0  0  0  0  0  0  0  0  0
  -19.2612   -0.1773    0.0000 O   0  0  0  0  0  0  0  0  0  0  0  0
  -20.4569   -0.9597    0.0000 C   0  0  1  0  0  0  0  0  0  0  0  0
  -21.2806   -1.0057    0.0000 N   0  0  0  0  0  0  0  0  0  0  0  0
  -20.0052   -1.6500    0.0000 C   0  0  0  0  0  0  0  0  0  0  0  0
  -20.3772   -2.3864    0.0000 C   0  0  0  0  0  0  0  0  0  0  0  0
  -19.9255   -3.0767    0.0000 C   0  0  0  0  0  0  0  0  0  0  0  0
  -20.2975   -3.8131    0.0000 C   0  0  0  0  0  0  0  0  0  0  0  0
  -21.1212   -3.8591    0.0000 C   0  0  0  0  0  0  0  0  0  0  0  0
  -21.4932   -4.5955    0.0000 O   0  0  0  0  0  0  0  0  0  0  0  0
  -21.5729   -3.1688    0.0000 C   0  0  0  0  0  0  0  0  0  0  0  0
  -21.2009   -2.4324    0.0000 C   0  0  0  0  0  0  0  0  0  0  0  0
  -20.5632    8.3370    0.0000 C   0  0  0  0  0  0  0  0  0  0  0  0
  -19.7395    8.3830    0.0000 O   0  0  0  0  0  0  0  0  0  0  0  0
  -21.0149    9.0274    0.0000 N   0  0  0  0  0  0  0  0  0  0  0  0
  -20.6429    9.7637    0.0000 C   0  0  1  0  0  0  0  0  0  0  0  0
  -19.8192    9.8098    0.0000 C   0  0  0  0  0  0  0  0  0  0  0  0
  -19.4472   10.5461    0.0000 C   0  0  0  0  0  0  0  0  0  0  0  0
  -19.8989   11.2365    0.0000 C   0  0  0  0  0  0  0  0  0  0  0  0
  -19.5269   11.9728    0.0000 C   0  0  0  0  0  0  0  0  0  0  0  0
  -18.7032   12.0189    0.0000 C   0  0  0  0  0  0  0  0  0  0  0  0
  -18.2515   11.3285    0.0000 C   0  0  0  0  0  0  0  0  0  0  0  0
  -18.6235   10.5921    0.0000 C   0  0  0  0  0  0  0  0  0  0  0  0
  -21.0946   10.4541    0.0000 C   0  0  0  0  0  0  0  0  0  0  0  0
  -21.9183   10.4081    0.0000 O   0  0  0  0  0  0  0  0  0  0  0  0
  -20.7226   11.1905    0.0000 N   0  0  0  0  0  0  0  0  0  0  0  0
  -21.1743   11.8808    0.0000 C   0  0  1  0  0  0  0  0  0  0  0  0
  -21.9980   11.8348    0.0000 C   0  0  1  0  0  0  0  0  0  0  0  0
  -22.4498   12.5251    0.0000 C   0  0  0  0  0  0  0  0  0  0  0  0
  -22.3700   11.0984    0.0000 O   0  0  0  0  0  0  0  0  0  0  0  0
  -20.8023   12.6172    0.0000 C   0  0  0  0  0  0  0  0  0  0  0  0
  -19.9786   12.6632    0.0000 O   0  0  0  0  0  0  0  0  0  0  0  0
  -21.2540   13.3075    0.0000 N   0  0  0  0  0  0  0  0  0  0  0  0
  -20.8820   14.0439    0.0000 C   0  0  1  0  0  0  0  0  0  0  0  0
  -20.0583   14.0899    0.0000 C   0  0  0  0  0  0  0  0  0  0  0  0
  -19.6863   14.8263    0.0000 C   0  0  0  0  0  0  0  0  0  0  0  0
  -20.1380   15.5166    0.0000 N   0  0  0  0  0  0  0  0  0  0  0  0
  -18.8626   14.8723    0.0000 O   0  0  0  0  0  0  0  0  0  0  0  0
  -21.3338   14.7342    0.0000 C   0  0  0  0  0  0  0  0  0  0  0  0
  -22.1575   14.6882    0.0000 O   0  0  0  0  0  0  0  0  0  0  0  0
  -20.9618   15.4706    0.0000 N   0  0  0  0  0  0  0  0  0  0  0  0
  -21.4135   16.1609    0.0000 C   0  0  1  0  0  0  0  0  0  0  0  0
  -22.2372   16.1149    0.0000 C   0  0  0  0  0  0  0  0  0  0  0  0
  -22.6889   16.8053    0.0000 O   0  0  0  0  0  0  0  0  0  0  0  0
  -21.0415   16.8973    0.0000 C   0  0  0  0  0  0  0  0  0  0  0  0
  -20.2178   16.9433    0.0000 O   0  0  0  0  0  0  0  0  0  0  0  0
  -21.4932   17.5877    0.0000 N   0  0  0  0  0  0  0  0  0  0  0  0
  -21.1212   18.3240    0.0000 C   0  0  1  0  0  0  0  0  0  0  0  0
  -21.5729   19.0144    0.0000 C   0  0  0  0  0  0  0  0  0  0  0  0
  -22.3966   18.9684    0.0000 C   0  0  0  0  0  0  0  0  0  0  0  0
  -22.7686   18.2320    0.0000 C   0  0  0  0  0  0  0  0  0  0  0  0
  -23.5923   18.1860    0.0000 C   0  0  0  0  0  0  0  0  0  0  0  0
  -24.0440   18.8763    0.0000 C   0  0  0  0  0  0  0  0  0  0  0  0
  -24.8678   18.8303    0.0000 O   0  0  0  0  0  0  0  0  0  0  0  0
  -23.6720   19.6127    0.0000 C   0  0  0  0  0  0  0  0  0  0  0  0
  -22.8483   19.6587    0.0000 C   0  0  0  0  0  0  0  0  0  0  0  0
  -20.2975   18.3701    0.0000 C   0  0  0  0  0  0  0  0  0  0  0  0
  -19.9255   19.1064    0.0000 O   0  0  0  0  0  0  0  0  0  0  0  0
  -19.8458   17.6797    0.0000 N   0  0  0  0  0  0  0  0  0  0  0  0
  -19.0220   17.7257    0.0000 C   0  0  1  0  0  0  0  0  0  0  0  0
  -18.6500   18.4621    0.0000 C   0  0  0  0  0  0  0  0  0  0  0  0
  -17.8263   18.5081    0.0000 C   0  0  0  0  0  0  0  0  0  0  0  0
  -17.4543   19.2445    0.0000 C   0  0  0  0  0  0  0  0  0  0  0  0
  -16.6306   19.2905    0.0000 N   0  0  0  0  0  0  0  0  0  0  0  0
  -16.2586   20.0269    0.0000 C   0  0  0  0  0  0  0  0  0  0  0  0
  -16.7103   20.7172    0.0000 N   0  0  0  0  0  0  0  0  0  0  0  0
  -15.4349   20.0729    0.0000 N   0  0  0  0  0  0  0  0  0  0  0  0
  -18.5703   17.0354    0.0000 C   0  0  0  0  0  0  0  0  0  0  0  0
  -18.9423   16.2990    0.0000 O   0  0  0  0  0  0  0  0  0  0  0  0
  -17.7466   17.0814    0.0000 N   0  0  0  0  0  0  0  0  0  0  0  0
  -17.2949   16.3911    0.0000 C   0  0  1  0  0  0  0  0  0  0  0  0
  -17.6669   15.6547    0.0000 C   0  0  0  0  0  0  0  0  0  0  0  0
  -17.2152   14.9643    0.0000 C   0  0  0  0  0  0  0  0  0  0  0  0
  -17.5872   14.2280    0.0000 C   0  0  0  0  0  0  0  0  0  0  0  0
  -17.1355   13.5376    0.0000 C   0  0  0  0  0  0  0  0  0  0  0  0
  -17.5075   12.8013    0.0000 N   0  0  0  0  0  0  0  0  0  0  0  0
  -16.4712   16.4371    0.0000 C   0  0  0  0  0  0  0  0  0  0  0  0
  -16.0992   17.1735    0.0000 O   0  0  0  0  0  0  0  0  0  0  0  0
  -16.0195   15.7467    0.0000 N   0  0  0  0  0  0  0  0  0  0  0  0
  -15.1958   15.7928    0.0000 C   0  0  1  0  0  0  0  0  0  0  0  0
  -14.8238   16.5291    0.0000 C   0  0  0  0  0  0  0  0  0  0  0  0
  -14.0000   16.5752    0.0000 C   0  0  0  0  0  0  0  0  0  0  0  0
  -15.2755   17.2195    0.0000 C   0  0  0  0  0  0  0  0  0  0  0  0
  -14.7440   15.1024    0.0000 C   0  0  0  0  0  0  0  0  0  0  0  0
  -15.1160   14.3660    0.0000 O   0  0  0  0  0  0  0  0  0  0  0  0
  -13.9203   15.1484    0.0000 N   0  0  0  0  0  0  0  0  0  0  0  0
  -13.4686   14.4581    0.0000 C   0  0  1  0  0  0  0  0  0  0  0  0
  -13.8406   13.7217    0.0000 C   0  0  0  0  0  0  0  0  0  0  0  0
  -13.3889   13.0314    0.0000 C   0  0  0  0  0  0  0  0  0  0  0  0
  -12.5652   13.0774    0.0000 C   0  0  0  0  0  0  0  0  0  0  0  0
  -13.7609   12.2950    0.0000 C   0  0  0  0  0  0  0  0  0  0  0  0
  -12.6449   14.5041    0.0000 C   0  0  0  0  0  0  0  0  0  0  0  0
  -12.2729   15.2405    0.0000 O   0  0  0  0  0  0  0  0  0  0  0  0
  -12.1932   13.8138    0.0000 N   0  0  0  0  0  0  0  0  0  0  0  0
  -11.3695   13.8598    0.0000 C   0  0  0  0  0  0  0  0  0  0  0  0
  -10.9177   13.1694    0.0000 C   0  0  0  0  0  0  0  0  0  0  0  0
  -11.2897   12.4331    0.0000 O   0  0  0  0  0  0  0  0  0  0  0  0
  -10.0940   13.2155    0.0000 N   0  0  0  0  0  0  0  0  0  0  0  0
   -9.6423   12.5251    0.0000 C   0  0  1  0  0  0  0  0  0  0  0  0
  -10.0143   11.7888    0.0000 C   0  0  0  0  0  0  0  0  0  0  0  0
   -9.5626   11.0984    0.0000 C   0  0  0  0  0  0  0  0  0  0  0  0
   -9.9346   10.3620    0.0000 C   0  0  0  0  0  0  0  0  0  0  0  0
  -10.7583   10.3160    0.0000 N   0  0  0  0  0  0  0  0  0  0  0  0
   -9.4829    9.6717    0.0000 O   0  0  0  0  0  0  0  0  0  0  0  0
   -8.8186   12.5711    0.0000 C   0  0  0  0  0  0  0  0  0  0  0  0
   -8.4466   13.3075    0.0000 O   0  0  0  0  0  0  0  0  0  0  0  0
   -8.3669   11.8808    0.0000 N   0  0  0  0  0  0  0  0  0  0  0  0
   -7.5432   11.9268    0.0000 C   0  0  1  0  0  0  0  0  0  0  0  0
   -7.1712   12.6632    0.0000 C   0  0  0  0  0  0  0  0  0  0  0  0
   -6.3475   12.7092    0.0000 C   0  0  0  0  0  0  0  0  0  0  0  0
   -5.9755   13.4456    0.0000 C   0  0  0  0  0  0  0  0  0  0  0  0
   -5.8957   12.0189    0.0000 C   0  0  0  0  0  0  0  0  0  0  0  0
   -7.0915   11.2365    0.0000 C   0  0  0  0  0  0  0  0  0  0  0  0
   -7.4635   10.5001    0.0000 O   0  0  0  0  0  0  0  0  0  0  0  0
   -6.2677   11.2825    0.0000 N   0  0  0  0  0  0  0  0  0  0  0  0
   -5.8160   10.5921    0.0000 C   0  0  1  0  0  0  0  0  0  0  0  0
   -6.1880    9.8558    0.0000 C   0  0  0  0  0  0  0  0  0  0  0  0
   -5.7363    9.1654    0.0000 O   0  0  0  0  0  0  0  0  0  0  0  0
   -4.9923   10.6382    0.0000 C   0  0  0  0  0  0  0  0  0  0  0  0
   -4.6203   11.3745    0.0000 O   0  0  0  0  0  0  0  0  0  0  0  0
   -4.5406    9.9478    0.0000 N   0  0  0  0  0  0  0  0  0  0  0  0
   -3.7169    9.9938    0.0000 C   0  0  1  0  0  0  0  0  0  0  0  0
   -3.3449   10.7302    0.0000 C   0  0  0  0  0  0  0  0  0  0  0  0
   -3.2652    9.3035    0.0000 C   0  0  0  0  0  0  0  0  0  0  0  0
   -3.6372    8.5671    0.0000 O   0  0  0  0  0  0  0  0  0  0  0  0
   -2.4415    9.3495    0.0000 N   0  0  0  0  0  0  0  0  0  0  0  0
   -1.9897    8.6592    0.0000 C   0  0  1  0  0  0  0  0  0  0  0  0
   -2.3617    7.9228    0.0000 C   0  0  0  0  0  0  0  0  0  0  0  0
   -3.1855    7.8768    0.0000 C   0  0  0  0  0  0  0  0  0  0  0  0
   -3.5575    7.1404    0.0000 C   0  0  0  0  0  0  0  0  0  0  0  0
   -4.3812    7.0944    0.0000 N   0  0  0  0  0  0  0  0  0  0  0  0
   -4.7532    6.3580    0.0000 C   0  0  0  0  0  0  0  0  0  0  0  0
   -4.3015    5.6677    0.0000 N   0  0  0  0  0  0  0  0  0  0  0  0
   -5.5769    6.3120    0.0000 N   0  0  0  0  0  0  0  0  0  0  0  0
   -1.1660    8.7052    0.0000 C   0  0  0  0  0  0  0  0  0  0  0  0
   -0.7940    9.4416    0.0000 O   0  0  0  0  0  0  0  0  0  0  0  0
   -0.7143    8.0149    0.0000 N   0  0  0  0  0  0  0  0  0  0  0  0
    0.1094    8.0609    0.0000 C   0  0  1  0  0  0  0  0  0  0  0  0
    0.4814    8.7972    0.0000 C   0  0  0  0  0  0  0  0  0  0  0  0
    0.0297    9.4876    0.0000 C   0  0  0  0  0  0  0  0  0  0  0  0
    0.4017   10.2240    0.0000 C   0  0  0  0  0  0  0  0  0  0  0  0
   -0.0500   10.9143    0.0000 C   0  0  0  0  0  0  0  0  0  0  0  0
    0.3220   11.6507    0.0000 N   0  0  0  0  0  0  0  0  0  0  0  0
    0.5611    7.3705    0.0000 C   0  0  0  0  0  0  0  0  0  0  0  0
    0.1891    6.6342    0.0000 O   0  0  0  0  0  0  0  0  0  0  0  0
    1.3848    7.4166    0.0000 N   0  0  0  0  0  0  0  0  0  0  0  0
    1.8366    6.7262    0.0000 C   0  0  1  0  0  0  0  0  0  0  0  0
    1.4646    5.9898    0.0000 C   0  0  0  0  0  0  0  0  0  0  0  0
    1.9163    5.2995    0.0000 C   0  0  0  0  0  0  0  0  0  0  0  0
    2.7400    5.3455    0.0000 C   0  0  0  0  0  0  0  0  0  0  0  0
    1.5443    4.5631    0.0000 C   0  0  0  0  0  0  0  0  0  0  0  0
    2.6603    6.7722    0.0000 C   0  0  0  0  0  0  0  0  0  0  0  0
    3.0323    7.5086    0.0000 O   0  0  0  0  0  0  0  0  0  0  0  0
    3.1120    6.0819    0.0000 N   0  0  0  0  0  0  0  0  0  0  0  0
    3.9357    6.1279    0.0000 C   0  0  1  0  0  0  0  0  0  0  0  0
    4.3077    6.8643    0.0000 C   0  0  0  0  0  0  0  0  0  0  0  0
    5.1314    6.9103    0.0000 C   0  0  0  0  0  0  0  0  0  0  0  0
    5.5034    7.6467    0.0000 C   0  0  0  0  0  0  0  0  0  0  0  0
    5.5831    6.2200    0.0000 C   0  0  0  0  0  0  0  0  0  0  0  0
    4.3874    5.4376    0.0000 C   0  0  0  0  0  0  0  0  0  0  0  0
    4.0154    4.7012    0.0000 O   0  0  0  0  0  0  0  0  0  0  0  0
    5.2111    5.4836    0.0000 N   0  0  0  0  0  0  0  0  0  0  0  0
    5.6628    4.7932    0.0000 C   0  0  1  0  0  0  0  0  0  0  0  0
    5.2908    4.0569    0.0000 C   0  0  0  0  0  0  0  0  0  0  0  0
    5.7426    3.3665    0.0000 C   0  0  0  0  0  0  0  0  0  0  0  0
    5.3706    2.6302    0.0000 C   0  0  0  0  0  0  0  0  0  0  0  0
    4.5468    2.5841    0.0000 N   0  0  0  0  0  0  0  0  0  0  0  0
    5.8223    1.9398    0.0000 O   0  0  0  0  0  0  0  0  0  0  0  0
    6.4866    4.8393    0.0000 C   0  0  0  0  0  0  0  0  0  0  0  0
    6.8586    5.5756    0.0000 O   0  0  0  0  0  0  0  0  0  0  0  0
    6.9383    4.1489    0.0000 N   0  0  0  0  0  0  0  0  0  0  0  0
    7.7620    4.1949    0.0000 C   0  0  1  0  0  0  0  0  0  0  0  0
    8.1340    4.9313    0.0000 C   0  0  0  0  0  0  0  0  0  0  0  0
    8.9577    4.9773    0.0000 C   0  0  0  0  0  0  0  0  0  0  0  0
    9.3297    5.7137    0.0000 O   0  0  0  0  0  0  0  0  0  0  0  0
    9.4094    4.2870    0.0000 O   0  0  0  0  0  0  0  0  0  0  0  0
    8.2137    3.5046    0.0000 C   0  0  0  0  0  0  0  0  0  0  0  0
    7.8417    2.7682    0.0000 O   0  0  0  0  0  0  0  0  0  0  0  0
    9.0374    3.5506    0.0000 N   0  0  0  0  0  0  0  0  0  0  0  0
    9.4891    2.8603    0.0000 C   0  0  1  0  0  0  0  0  0  0  0  0
    9.1171    2.1239    0.0000 C   0  0  1  0  0  0  0  0  0  0  0  0
    8.2934    2.0779    0.0000 C   0  0  0  0  0  0  0  0  0  0  0  0
    9.5688    1.4335    0.0000 C   0  0  0  0  0  0  0  0  0  0  0  0
    9.1968    0.6972    0.0000 C   0  0  0  0  0  0  0  0  0  0  0  0
   10.3128    2.9063    0.0000 C   0  0  0  0  0  0  0  0  0  0  0  0
   10.6849    3.6427    0.0000 O   0  0  0  0  0  0  0  0  0  0  0  0
   10.7646    2.2159    0.0000 N   0  0  0  0  0  0  0  0  0  0  0  0
   11.5883    2.2620    0.0000 C   0  0  1  0  0  0  0  0  0  0  0  0
   11.9603    2.9983    0.0000 C   0  0  0  0  0  0  0  0  0  0  0  0
   12.7840    3.0444    0.0000 C   0  0  0  0  0  0  0  0  0  0  0  0
   13.1560    3.7807    0.0000 S   0  0  0  0  0  0  0  0  0  0  0  0
   13.9797    3.8268    0.0000 C   0  0  0  0  0  0  0  0  0  0  0  0
   12.0400    1.5716    0.0000 C   0  0  0  0  0  0  0  0  0  0  0  0
   11.6680    0.8352    0.0000 O   0  0  0  0  0  0  0  0  0  0  0  0
   12.8637    1.6176    0.0000 N   0  0  0  0  0  0  0  0  0  0  0  0
   13.3154    0.9273    0.0000 C   0  0  1  0  0  0  0  0  0  0  0  0
   12.9434    0.1909    0.0000 C   0  0  0  0  0  0  0  0  0  0  0  0
   13.3951   -0.4994    0.0000 O   0  0  0  0  0  0  0  0  0  0  0  0
   14.1391    0.9733    0.0000 C   0  0  0  0  0  0  0  0  0  0  0  0
   14.5111    1.7097    0.0000 O   0  0  0  0  0  0  0  0  0  0  0  0
   14.5909    0.2830    0.0000 N   0  0  0  0  0  0  0  0  0  0  0  0
   15.4146    0.3290    0.0000 C   0  0  1  0  0  0  0  0  0  0  0  0
   15.8663   -0.3614    0.0000 C   0  0  0  0  0  0  0  0  0  0  0  0
   16.6900   -0.3153    0.0000 C   0  0  0  0  0  0  0  0  0  0  0  0
   17.1417   -1.0057    0.0000 C   0  0  0  0  0  0  0  0  0  0  0  0
   17.9654   -0.9597    0.0000 N   0  0  0  0  0  0  0  0  0  0  0  0
   18.4171   -1.6500    0.0000 C   0  0  0  0  0  0  0  0  0  0  0  0
   19.2409   -1.6040    0.0000 N   0  0  0  0  0  0  0  0  0  0  0  0
   18.0451   -2.3864    0.0000 N   0  0  0  0  0  0  0  0  0  0  0  0
   15.7866    1.0654    0.0000 C   0  0  0  0  0  0  0  0  0  0  0  0
   16.6103    1.1114    0.0000 N   0  0  0  0  0  0  0  0  0  0  0  0
   15.3349    1.7557    0.0000 O   0  0  0  0  0  0  0  0  0  0  0  0
  1  2  1  0  0  0  0
  2  3  1  0  0  0  0
  3  4  1  6  0  0  0
  3  5  1  0  0  0  0
  5  6  1  1  0  0  0
  6  7  1  0  0  0  0
  7  8  2  0  0  0  0
  7  9  1  0  0  0  0
  9 10  1  6  0  0  0
  9 11  1  0  0  0  0
 11 12  1  0  0  0  0
 12 13  2  0  0  0  0
 12 14  1  0  0  0  0
 14 15  1  0  0  0  0
 15 16  1  0  0  0  0
 16 17  1  0  0  0  0
 16 18  2  0  0  0  0
 14 19  1  1  0  0  0
 19 20  1  0  0  0  0
 20 21  2  0  0  0  0
 20 22  1  0  0  0  0
 22 23  1  6  0  0  0
 22 24  1  0  0  0  0
 24 25  1  0  0  0  0
 25 26  2  0  0  0  0
 25 27  1  0  0  0  0
 27 28  1  6  0  0  0
 27 29  1  0  0  0  0
 29 30  1  0  0  0  0
 30 31  4  0  0  0  0
 31 32  4  0  0  0  0
 32 33  4  0  0  0  0
 33 34  1  0  0  0  0
 33 35  4  0  0  0  0
 35 36  4  0  0  0  0
 30 36  4  0  0  0  0
  5 37  1  0  0  0  0
 37 38  2  0  0  0  0
 37 39  1  0  0  0  0
 40 39  1  6  0  0  0
 40 41  1  0  0  0  0
 41 42  1  0  0  0  0
 42 43  4  0  0  0  0
 43 44  4  0  0  0  0
 44 45  4  0  0  0  0
 45 46  4  0  0  0  0
 46 47  4  0  0  0  0
 42 47  4  0  0  0  0
 40 48  1  0  0  0  0
 48 49  2  0  0  0  0
 48 50  1  0  0  0  0
 51 50  1  1  0  0  0
 51 52  1  0  0  0  0
 52 53  1  0  0  0  0
 52 54  1  6  0  0  0
 51 55  1  0  0  0  0
 55 56  2  0  0  0  0
 55 57  1  0  0  0  0
 58 57  1  6  0  0  0
 58 59  1  0  0  0  0
 59 60  1  0  0  0  0
 60 61  1  0  0  0  0
 60 62  2  0  0  0  0
 58 63  1  0  0  0  0
 63 64  2  0  0  0  0
 63 65  1  0  0  0  0
 66 65  1  1  0  0  0
 66 67  1  0  0  0  0
 67 68  1  0  0  0  0
 66 69  1  0  0  0  0
 69 70  2  0  0  0  0
 69 71  1  0  0  0  0
 72 71  1  1  0  0  0
 72 73  1  0  0  0  0
 73 74  1  0  0  0  0
 74 75  4  0  0  0  0
 75 76  4  0  0  0  0
 76 77  4  0  0  0  0
 77 78  1  0  0  0  0
 77 79  4  0  0  0  0
 79 80  4  0  0  0  0
 74 80  4  0  0  0  0
 72 81  1  0  0  0  0
 81 82  2  0  0  0  0
 81 83  1  0  0  0  0
 84 83  1  1  0  0  0
 84 85  1  0  0  0  0
 85 86  1  0  0  0  0
 86 87  1  0  0  0  0
 87 88  1  0  0  0  0
 88 89  1  0  0  0  0
 89 90  1  0  0  0  0
 89 91  2  0  0  0  0
 84 92  1  0  0  0  0
 92 93  2  0  0  0  0
 92 94  1  0  0  0  0
 95 94  1  6  0  0  0
 95 96  1  0  0  0  0
 96 97  1  0  0  0  0
 97 98  1  0  0  0  0
 98 99  1  0  0  0  0
 99100  1  0  0  0  0
 95101  1  0  0  0  0
101102  2  0  0  0  0
101103  1  0  0  0  0
104103  1  1  0  0  0
104105  1  0  0  0  0
105106  1  0  0  0  0
105107  1  0  0  0  0
104108  1  0  0  0  0
108109  2  0  0  0  0
108110  1  0  0  0  0
111110  1  6  0  0  0
111112  1  0  0  0  0
112113  1  0  0  0  0
113114  1  0  0  0  0
113115  1  0  0  0  0
111116  1  0  0  0  0
116117  2  0  0  0  0
116118  1  0  0  0  0
118119  1  0  0  0  0
119120  1  0  0  0  0
120121  2  0  0  0  0
120122  1  0  0  0  0
123122  1  6  0  0  0
123124  1  0  0  0  0
124125  1  0  0  0  0
125126  1  0  0  0  0
126127  1  0  0  0  0
126128  2  0  0  0  0
123129  1  0  0  0  0
129130  2  0  0  0  0
129131  1  0  0  0  0
132131  1  1  0  0  0
132133  1  0  0  0  0
133134  1  0  0  0  0
134135  1  0  0  0  0
134136  1  0  0  0  0
132137  1  0  0  0  0
137138  2  0  0  0  0
137139  1  0  0  0  0
140139  1  6  0  0  0
140141  1  0  0  0  0
141142  1  0  0  0  0
140143  1  0  0  0  0
143144  2  0  0  0  0
143145  1  0  0  0  0
145146  1  0  0  0  0
146147  1  1  0  0  0
146148  1  0  0  0  0
148149  2  0  0  0  0
148150  1  0  0  0  0
151150  1  6  0  0  0
151152  1  0  0  0  0
152153  1  0  0  0  0
153154  1  0  0  0  0
154155  1  0  0  0  0
155156  1  0  0  0  0
156157  1  0  0  0  0
156158  2  0  0  0  0
151159  1  0  0  0  0
159160  2  0  0  0  0
159161  1  0  0  0  0
162161  1  1  0  0  0
162163  1  0  0  0  0
163164  1  0  0  0  0
164165  1  0  0  0  0
165166  1  0  0  0  0
166167  1  0  0  0  0
162168  1  0  0  0  0
168169  2  0  0  0  0
168170  1  0  0  0  0
171170  1  6  0  0  0
171172  1  0  0  0  0
172173  1  0  0  0  0
173174  1  0  0  0  0
173175  1  0  0  0  0
171176  1  0  0  0  0
176177  2  0  0  0  0
176178  1  0  0  0  0
179178  1  1  0  0  0
179180  1  0  0  0  0
180181  1  0  0  0  0
181182  1  0  0  0  0
181183  1  0  0  0  0
179184  1  0  0  0  0
184185  2  0  0  0  0
184186  1  0  0  0  0
187186  1  6  0  0  0
187188  1  0  0  0  0
188189  1  0  0  0  0
189190  1  0  0  0  0
190191  1  0  0  0  0
190192  2  0  0  0  0
187193  1  0  0  0  0
193194  2  0  0  0  0
193195  1  0  0  0  0
196195  1  1  0  0  0
196197  1  0  0  0  0
197198  1  0  0  0  0
198199  1  0  0  0  0
198200  2  0  0  0  0
196201  1  0  0  0  0
201202  2  0  0  0  0
201203  1  0  0  0  0
204203  1  6  0  0  0
204205  1  0  0  0  0
205206  1  6  0  0  0
205207  1  0  0  0  0
207208  1  0  0  0  0
204209  1  0  0  0  0
209210  2  0  0  0  0
209211  1  0  0  0  0
212211  1  1  0  0  0
212213  1  0  0  0  0
213214  1  0  0  0  0
214215  1  0  0  0  0
215216  1  0  0  0  0
212217  1  0  0  0  0
217218  2  0  0  0  0
217219  1  0  0  0  0
220219  1  6  0  0  0
220221  1  0  0  0  0
221222  1  0  0  0  0
220223  1  0  0  0  0
223224  2  0  0  0  0
223225  1  0  0  0  0
226225  1  6  0  0  0
226227  1  0  0  0  0
227228  1  0  0  0  0
228229  1  0  0  0  0
229230  1  0  0  0  0
230231  1  0  0  0  0
231232  1  0  0  0  0
231233  2  0  0  0  0
226234  1  0  0  0  0
234235  1  0  0  0  0
234236  2  0  0  0  0
M  END
>  <ID>
2433

>  <PREFERRED_NAME>
sermorelin

>  <CAS_RN>
86168-78-7

>  <SYNONYMS>
sermorelin
sermorelin acetate
somatoliberin

>  <URL>
http://drugcentral.org/drugcard/2433/view

$$$$
