setastine
  -INDIGO-06102311052D

 25 27  0  0  0  0  0  0  0  0999 V2000
   -1.7852    1.4423    0.0000 C   0  0  0  0  0  0  0  0  0  0  0  0
   -1.7852    0.6173    0.0000 C   0  0  0  0  0  0  0  0  0  0  0  0
   -2.6102    0.6173    0.0000 O   0  0  0  0  0  0  0  0  0  0  0  0
   -3.0227   -0.0971    0.0000 C   0  0  0  0  0  0  0  0  0  0  0  0
   -3.8477   -0.0971    0.0000 C   0  0  0  0  0  0  0  0  0  0  0  0
   -4.2602   -0.8116    0.0000 N   0  0  0  0  0  0  0  0  0  0  0  0
   -3.7955   -1.4932    0.0000 C   0  0  0  0  0  0  0  0  0  0  0  0
   -4.0386   -2.2816    0.0000 C   0  0  0  0  0  0  0  0  0  0  0  0
   -4.8066   -2.5830    0.0000 C   0  0  0  0  0  0  0  0  0  0  0  0
   -5.5211   -2.1705    0.0000 C   0  0  0  0  0  0  0  0  0  0  0  0
   -5.6440   -1.3547    0.0000 C   0  0  0  0  0  0  0  0  0  0  0  0
   -5.0829   -0.7500    0.0000 C   0  0  0  0  0  0  0  0  0  0  0  0
   -1.7852   -0.2077    0.0000 C   0  0  0  0  0  0  0  0  0  0  0  0
   -1.0707   -0.6202    0.0000 C   0  0  0  0  0  0  0  0  0  0  0  0
   -1.0707   -1.4452    0.0000 C   0  0  0  0  0  0  0  0  0  0  0  0
   -1.7852   -1.8577    0.0000 C   0  0  0  0  0  0  0  0  0  0  0  0
   -2.4997   -1.4452    0.0000 C   0  0  0  0  0  0  0  0  0  0  0  0
   -2.4997   -0.6202    0.0000 C   0  0  0  0  0  0  0  0  0  0  0  0
   -0.9602    0.6173    0.0000 C   0  0  0  0  0  0  0  0  0  0  0  0
   -0.5477    1.3318    0.0000 C   0  0  0  0  0  0  0  0  0  0  0  0
    0.2773    1.3318    0.0000 C   0  0  0  0  0  0  0  0  0  0  0  0
    0.6898    0.6173    0.0000 C   0  0  0  0  0  0  0  0  0  0  0  0
    1.5148    0.6173    0.0000 Cl  0  0  0  0  0  0  0  0  0  0  0  0
    0.2773   -0.0971    0.0000 C   0  0  0  0  0  0  0  0  0  0  0  0
   -0.5477   -0.0971    0.0000 C   0  0  0  0  0  0  0  0  0  0  0  0
  1  2  1  0  0  0  0
  2  3  1  0  0  0  0
  3  4  1  0  0  0  0
  4  5  1  0  0  0  0
  5  6  1  0  0  0  0
  6  7  1  0  0  0  0
  7  8  1  0  0  0  0
  8  9  1  0  0  0  0
  9 10  1  0  0  0  0
 10 11  1  0  0  0  0
 11 12  1  0  0  0  0
  6 12  1  0  0  0  0
  2 13  1  0  0  0  0
 13 14  4  0  0  0  0
 14 15  4  0  0  0  0
 15 16  4  0  0  0  0
 16 17  4  0  0  0  0
 17 18  4  0  0  0  0
 13 18  4  0  0  0  0
  2 19  1  0  0  0  0
 19 20  4  0  0  0  0
 20 21  4  0  0  0  0
 21 22  4  0  0  0  0
 22 23  1  0  0  0  0
 22 24  4  0  0  0  0
 24 25  4  0  0  0  0
 19 25  4  0  0  0  0
M  END
>  <ID>
2437

>  <PREFERRED_NAME>
setastine

>  <CAS_RN>
64294-95-7

>  <SYNONYMS>
setastine
setastinum
EGYT-2062

>  <URL>
http://drugcentral.org/drugcard/2437/view

$$$$
