setmelanotide
  -INDIGO-06102311212D

 78 82  0  0  1  0  0  0  0  0999 V2000
    3.7904   -0.2758    0.0000 C   0  0  0  0  0  0  0  0  0  0  0  0
    2.9729   -0.1644    0.0000 C   0  0  2  0  0  0  0  0  0  0  0  0
    2.8014    0.6425    0.0000 C   0  0  0  0  0  0  0  0  0  0  0  0
    2.0477    0.9781    0.0000 O   0  0  0  0  0  0  0  0  0  0  0  0
    3.5159    1.0550    0.0000 N   0  0  0  0  0  0  0  0  0  0  0  0
    4.1290    0.5030    0.0000 C   0  0  2  0  0  0  0  0  0  0  0  0
    5.0309    0.4638    0.0000 C   0  0  0  0  0  0  0  0  0  0  0  0
    4.9625    1.2860    0.0000 O   0  0  0  0  0  0  0  0  0  0  0  0
    5.4434   -0.2507    0.0000 N   0  0  0  0  0  0  0  0  0  0  0  0
    6.2684   -0.2507    0.0000 C   0  0  1  0  0  0  0  0  0  0  0  0
    6.6809   -0.9651    0.0000 C   0  0  0  0  0  0  0  0  0  0  0  0
    6.2684   -1.6796    0.0000 O   0  0  0  0  0  0  0  0  0  0  0  0
    7.5059   -0.9651    0.0000 N   0  0  0  0  0  0  0  0  0  0  0  0
    7.9184   -1.6796    0.0000 C   0  0  2  0  0  0  0  0  0  0  0  0
    8.7434   -1.6796    0.0000 C   0  0  0  0  0  0  0  0  0  0  0  0
    9.1559   -0.9651    0.0000 O   0  0  0  0  0  0  0  0  0  0  0  0
    9.1559   -2.3941    0.0000 N   0  0  0  0  0  0  0  0  0  0  0  0
    8.7434   -3.1086    0.0000 C   0  0  2  0  0  0  0  0  0  0  0  0
    7.9184   -3.1086    0.0000 C   0  0  0  0  0  0  0  0  0  0  0  0
    7.5059   -2.3941    0.0000 O   0  0  0  0  0  0  0  0  0  0  0  0
    7.5059   -3.8230    0.0000 N   0  0  0  0  0  0  0  0  0  0  0  0
    6.6809   -3.8230    0.0000 C   0  0  1  0  0  0  0  0  0  0  0  0
    6.2684   -3.1086    0.0000 C   0  0  0  0  0  0  0  0  0  0  0  0
    5.4434   -3.1086    0.0000 S   0  0  0  0  0  0  0  0  0  0  0  0
    5.0309   -2.3941    0.0000 S   0  0  0  0  0  0  0  0  0  0  0  0
    4.2059   -2.3941    0.0000 C   0  0  0  0  0  0  0  0  0  0  0  0
    3.7934   -1.6796    0.0000 C   0  0  1  0  0  0  0  0  0  0  0  0
    2.9684   -1.6796    0.0000 C   0  0  0  0  0  0  0  0  0  0  0  0
    2.5559   -2.3941    0.0000 O   0  0  0  0  0  0  0  0  0  0  0  0
    2.5559   -0.9651    0.0000 N   0  0  0  0  0  0  0  0  0  0  0  0
    3.3809   -2.3941    0.0000 N   0  0  0  0  0  0  0  0  0  0  0  0
    3.7934   -3.1086    0.0000 C   0  0  0  0  0  0  0  0  0  0  0  0
    4.6184   -3.1086    0.0000 O   0  0  0  0  0  0  0  0  0  0  0  0
    3.3809   -3.8230    0.0000 C   0  0  2  0  0  0  0  0  0  0  0  0
    2.5559   -3.8230    0.0000 C   0  0  0  0  0  0  0  0  0  0  0  0
    2.1434   -4.5375    0.0000 C   0  0  0  0  0  0  0  0  0  0  0  0
    1.3184   -4.5375    0.0000 C   0  0  0  0  0  0  0  0  0  0  0  0
    0.9059   -5.2520    0.0000 N   0  0  0  0  0  0  0  0  0  0  0  0
    0.0809   -5.2520    0.0000 C   0  0  0  0  0  0  0  0  0  0  0  0
   -0.3316   -5.9664    0.0000 N   0  0  0  0  0  0  0  0  0  0  0  0
   -0.3316   -4.5375    0.0000 N   0  0  0  0  0  0  0  0  0  0  0  0
    3.7934   -4.5375    0.0000 N   0  0  0  0  0  0  0  0  0  0  0  0
    4.6184   -4.5375    0.0000 C   0  0  0  0  0  0  0  0  0  0  0  0
    5.0309   -3.8230    0.0000 O   0  0  0  0  0  0  0  0  0  0  0  0
    5.0309   -5.2520    0.0000 C   0  0  0  0  0  0  0  0  0  0  0  0
    6.2684   -4.5375    0.0000 C   0  0  0  0  0  0  0  0  0  0  0  0
    5.4434   -4.5375    0.0000 O   0  0  0  0  0  0  0  0  0  0  0  0
    6.6809   -5.2520    0.0000 N   0  0  0  0  0  0  0  0  0  0  0  0
    9.1559   -3.8230    0.0000 C   0  0  0  0  0  0  0  0  0  0  0  0
    9.9809   -3.8230    0.0000 C   0  0  0  0  0  0  0  0  0  0  0  0
   10.4658   -3.1556    0.0000 C   0  0  0  0  0  0  0  0  0  0  0  0
   11.2505   -3.4105    0.0000 N   0  0  0  0  0  0  0  0  0  0  0  0
   11.2505   -4.2355    0.0000 C   0  0  0  0  0  0  0  0  0  0  0  0
   11.8636   -4.7876    0.0000 C   0  0  0  0  0  0  0  0  0  0  0  0
   11.6920   -5.5945    0.0000 C   0  0  0  0  0  0  0  0  0  0  0  0
   10.9074   -5.8495    0.0000 C   0  0  0  0  0  0  0  0  0  0  0  0
   10.2943   -5.2974    0.0000 C   0  0  0  0  0  0  0  0  0  0  0  0
   10.4658   -4.4905    0.0000 C   0  0  0  0  0  0  0  0  0  0  0  0
    8.3309   -0.9651    0.0000 C   0  0  0  0  0  0  0  0  0  0  0  0
    7.9184   -0.2507    0.0000 C   0  0  0  0  0  0  0  0  0  0  0  0
    8.3309    0.4638    0.0000 C   0  0  0  0  0  0  0  0  0  0  0  0
    9.1559    0.4638    0.0000 N   0  0  0  0  0  0  0  0  0  0  0  0
    9.5684    1.1783    0.0000 C   0  0  0  0  0  0  0  0  0  0  0  0
    9.1559    1.8927    0.0000 N   0  0  0  0  0  0  0  0  0  0  0  0
   10.3934    1.1783    0.0000 N   0  0  0  0  0  0  0  0  0  0  0  0
    6.6809    0.4638    0.0000 C   0  0  0  0  0  0  0  0  0  0  0  0
    6.2684    1.1783    0.0000 C   0  0  0  0  0  0  0  0  0  0  0  0
    5.4434    1.1783    0.0000 C   0  0  0  0  0  0  0  0  0  0  0  0
    5.0309    1.8927    0.0000 C   0  0  0  0  0  0  0  0  0  0  0  0
    5.4434    2.6072    0.0000 C   0  0  0  0  0  0  0  0  0  0  0  0
    6.2684    2.6072    0.0000 C   0  0  0  0  0  0  0  0  0  0  0  0
    6.6809    1.8927    0.0000 C   0  0  0  0  0  0  0  0  0  0  0  0
    4.4413    1.2666    0.0000 C   0  0  0  0  0  0  0  0  0  0  0  0
    3.9361    1.9189    0.0000 C   0  0  0  0  0  0  0  0  0  0  0  0
    4.1669    2.7109    0.0000 C   0  0  0  0  0  0  0  0  0  0  0  0
    3.4849    3.1752    0.0000 N   0  0  0  0  0  0  0  0  0  0  0  0
    2.8327    2.6700    0.0000 C   0  0  0  0  0  0  0  0  0  0  0  0
    3.1115    1.8936    0.0000 N   0  0  0  0  0  0  0  0  0  0  0  0
  2  1  1  1  0  0  0
  2  3  1  0  0  0  0
  3  4  2  0  0  0  0
  3  5  1  0  0  0  0
  5  6  1  0  0  0  0
  6  7  1  0  0  0  0
  7  8  2  0  0  0  0
  7  9  1  0  0  0  0
  9 10  1  0  0  0  0
 10 11  1  0  0  0  0
 11 12  2  0  0  0  0
 11 13  1  0  0  0  0
 13 14  1  0  0  0  0
 14 15  1  0  0  0  0
 15 16  2  0  0  0  0
 15 17  1  0  0  0  0
 17 18  1  0  0  0  0
 18 19  1  0  0  0  0
 19 20  2  0  0  0  0
 19 21  1  0  0  0  0
 21 22  1  0  0  0  0
 22 23  1  0  0  0  0
 23 24  1  0  0  0  0
 24 25  1  0  0  0  0
 25 26  1  0  0  0  0
 26 27  1  0  0  0  0
 27 28  1  0  0  0  0
 28 29  2  0  0  0  0
 28 30  1  0  0  0  0
  2 30  1  0  0  0  0
 27 31  1  1  0  0  0
 31 32  1  0  0  0  0
 32 33  2  0  0  0  0
 32 34  1  0  0  0  0
 34 35  1  0  0  0  0
 35 36  1  0  0  0  0
 36 37  1  0  0  0  0
 37 38  1  0  0  0  0
 38 39  2  0  0  0  0
 39 40  1  0  0  0  0
 39 41  1  0  0  0  0
 34 42  1  1  0  0  0
 42 43  1  0  0  0  0
 43 44  2  0  0  0  0
 43 45  1  0  0  0  0
 22 46  1  6  0  0  0
 46 47  2  0  0  0  0
 46 48  1  0  0  0  0
 18 49  1  1  0  0  0
 49 50  1  0  0  0  0
 50 51  4  0  0  0  0
 51 52  4  0  0  0  0
 52 53  4  0  0  0  0
 53 54  4  0  0  0  0
 54 55  4  0  0  0  0
 55 56  4  0  0  0  0
 56 57  4  0  0  0  0
 57 58  4  0  0  0  0
 53 58  4  0  0  0  0
 50 58  4  0  0  0  0
 14 59  1  6  0  0  0
 59 60  1  0  0  0  0
 60 61  1  0  0  0  0
 61 62  1  0  0  0  0
 62 63  2  0  0  0  0
 63 64  1  0  0  0  0
 63 65  1  0  0  0  0
 10 66  1  6  0  0  0
 66 67  1  0  0  0  0
 67 68  4  0  0  0  0
 68 69  4  0  0  0  0
 69 70  4  0  0  0  0
 70 71  4  0  0  0  0
 71 72  4  0  0  0  0
 67 72  4  0  0  0  0
  6 73  1  6  0  0  0
 73 74  1  0  0  0  0
 74 75  4  0  0  0  0
 75 76  4  0  0  0  0
 76 77  4  0  0  0  0
 77 78  4  0  0  0  0
 74 78  4  0  0  0  0
M  STY  2   1 DAT   2 DAT
M  SLB  2   1   1   2   2
M  SAL   1  1  78
M  SDT   1 MRV_IMPLICIT_H
M  SDD   1     0.0000    0.0000    DA    ALL  1       1
M  SED   1 IMPL_H1
M  SAL   2  1  52
M  SDT   2 MRV_IMPLICIT_H
M  SDD   2     0.0000    0.0000    DA    ALL  1       1
M  SED   2 IMPL_H1
M  END
>  <ID>
5416

>  <PREFERRED_NAME>
setmelanotide

>  <CAS_RN>
920014-72-8

>  <SYNONYMS>
setmelanotide
setmelanotide hydrochloride
setmelanotide acetate
imcivree
RM-493

>  <URL>
http://drugcentral.org/drugcard/5416/view

$$$$
