siccanin
  -INDIGO-06102311102D

 25 29  0  0  1  0  0  0  0  0999 V2000
    5.4009   -0.5132    0.0000 C   0  0  0  0  0  0  0  0  0  0  0  0
    4.5908   -0.6691    0.0000 C   0  0  0  0  0  0  0  0  0  0  0  0
    4.3207   -1.4486    0.0000 C   0  0  0  0  0  0  0  0  0  0  0  0
    3.5106   -1.6046    0.0000 C   0  0  0  0  0  0  0  0  0  0  0  0
    3.2405   -2.3841    0.0000 O   0  0  0  0  0  0  0  0  0  0  0  0
    2.9705   -0.9809    0.0000 C   0  0  0  0  0  0  0  0  0  0  0  0
    2.1604   -1.1368    0.0000 C   0  0  2  0  0  0  0  0  0  0  0  0
    1.4551   -1.8378    0.0000 O   0  0  0  0  0  0  0  0  0  0  0  0
    0.9180   -1.3859    0.0000 C   0  0  0  0  0  0  0  0  0  0  0  0
    0.8101   -0.6691    0.0000 C   0  0  1  0  0  0  0  0  0  0  0  0
    0.5401   -1.4486    0.0000 C   0  0  0  0  0  0  0  0  0  0  0  0
   -0.2700   -1.6046    0.0000 C   0  0  0  0  0  0  0  0  0  0  0  0
   -0.8101   -0.9809    0.0000 C   0  0  0  0  0  0  0  0  0  0  0  0
   -0.5401   -0.2014    0.0000 C   0  0  0  0  0  0  0  0  0  0  0  0
   -1.3547   -0.0708    0.0000 C   0  0  0  0  0  0  0  0  0  0  0  0
   -0.5530    0.6235    0.0000 C   0  0  0  0  0  0  0  0  0  0  0  0
    0.2700   -0.0454    0.0000 C   0  0  2  0  0  0  0  0  0  0  0  0
    0.5401    0.7341    0.0000 C   0  0  0  0  0  0  0  0  0  0  0  0
    1.3502    0.8900    0.0000 C   0  0  0  0  0  0  0  0  0  0  0  0
    1.8903    0.2664    0.0000 C   0  0  2  0  0  0  0  0  0  0  0  0
    2.1604    1.0459    0.0000 C   0  0  0  0  0  0  0  0  0  0  0  0
    2.7004    0.4223    0.0000 O   0  0  0  0  0  0  0  0  0  0  0  0
    3.2405   -0.2014    0.0000 C   0  0  0  0  0  0  0  0  0  0  0  0
    4.0507   -0.0454    0.0000 C   0  0  0  0  0  0  0  0  0  0  0  0
    1.6203   -0.5132    0.0000 C   0  0  2  0  0  0  0  0  0  0  0  0
  1  2  1  0  0  0  0
  2  3  4  0  0  0  0
  3  4  4  0  0  0  0
  4  5  1  0  0  0  0
  4  6  4  0  0  0  0
  6  7  1  0  0  0  0
  7  8  1  6  0  0  0
  8  9  1  0  0  0  0
 10  9  1  1  0  0  0
 10 11  1  0  0  0  0
 11 12  1  0  0  0  0
 12 13  1  0  0  0  0
 13 14  1  0  0  0  0
 14 15  1  0  0  0  0
 14 16  1  0  0  0  0
 14 17  1  0  0  0  0
 10 17  1  0  0  0  0
 17 18  1  6  0  0  0
 18 19  1  0  0  0  0
 19 20  1  0  0  0  0
 20 21  1  1  0  0  0
 20 22  1  0  0  0  0
 22 23  1  0  0  0  0
  6 23  4  0  0  0  0
 23 24  4  0  0  0  0
  2 24  4  0  0  0  0
 20 25  1  0  0  0  0
 25  7  1  6  0  0  0
 10 25  1  0  0  0  0
M  END
>  <ID>
3546

>  <PREFERRED_NAME>
siccanin

>  <CAS_RN>
22733-60-4

>  <SYNONYMS>
siccanin
(-)-Siccanin

>  <URL>
http://drugcentral.org/drugcard/3546/view

$$$$
