silicon dioxide
  -INDIGO-06102311112D

  3  2  0  0  0  0  0  0  0  0999 V2000
    1.6500    0.0000    0.0000 O   0  0  0  0  0  0  0  0  0  0  0  0
    2.4750    0.0000    0.0000 Si  0  0  0  0  0  0  0  0  0  0  0  0
    3.3000    0.0000    0.0000 O   0  0  0  0  0  0  0  0  0  0  0  0
  1  2  2  0  0  0  0
  2  3  2  0  0  0  0
M  END
>  <ID>
4284

>  <PREFERRED_NAME>
silicon dioxide

>  <CAS_RN>
7631-86-9

>  <SYNONYMS>
silicon dioxide
silica
silica gel

>  <URL>
http://drugcentral.org/drugcard/4284/view

$$$$
