sitaxentan
  -INDIGO-06102311102D

 29 32  0  0  0  0  0  0  0  0999 V2000
    4.5256   -3.7416    0.0000 C   0  0  0  0  0  0  0  0  0  0  0  0
    3.9125   -3.1896    0.0000 C   0  0  0  0  0  0  0  0  0  0  0  0
    3.1055   -3.3611    0.0000 N   0  0  0  0  0  0  0  0  0  0  0  0
    2.6930   -2.6467    0.0000 O   0  0  0  0  0  0  0  0  0  0  0  0
    3.2450   -2.0336    0.0000 C   0  0  0  0  0  0  0  0  0  0  0  0
    3.0735   -1.2266    0.0000 N   0  0  0  0  0  0  0  0  0  0  0  0
    3.6866   -0.6746    0.0000 S   0  0  0  0  0  0  0  0  0  0  0  0
    4.2386   -1.2877    0.0000 O   0  0  0  0  0  0  0  0  0  0  0  0
    3.1346   -0.0615    0.0000 O   0  0  0  0  0  0  0  0  0  0  0  0
    4.2997   -0.1225    0.0000 C   0  0  0  0  0  0  0  0  0  0  0  0
    4.2135    0.6979    0.0000 C   0  0  0  0  0  0  0  0  0  0  0  0
    4.9671    1.0335    0.0000 S   0  0  0  0  0  0  0  0  0  0  0  0
    5.5192    0.4204    0.0000 C   0  0  0  0  0  0  0  0  0  0  0  0
    5.1067   -0.2941    0.0000 C   0  0  0  0  0  0  0  0  0  0  0  0
    3.4990    1.1104    0.0000 C   0  0  0  0  0  0  0  0  0  0  0  0
    3.4990    1.9354    0.0000 O   0  0  0  0  0  0  0  0  0  0  0  0
    2.7845    0.6979    0.0000 C   0  0  0  0  0  0  0  0  0  0  0  0
    2.0701    1.1104    0.0000 C   0  0  0  0  0  0  0  0  0  0  0  0
    1.3556    0.6979    0.0000 C   0  0  0  0  0  0  0  0  0  0  0  0
    0.6411    1.1104    0.0000 C   0  0  0  0  0  0  0  0  0  0  0  0
    0.6411    1.9354    0.0000 C   0  0  0  0  0  0  0  0  0  0  0  0
   -0.1435    2.1904    0.0000 O   0  0  0  0  0  0  0  0  0  0  0  0
   -0.6284    1.5229    0.0000 C   0  0  0  0  0  0  0  0  0  0  0  0
   -0.1435    0.8555    0.0000 O   0  0  0  0  0  0  0  0  0  0  0  0
    1.3556    2.3479    0.0000 C   0  0  0  0  0  0  0  0  0  0  0  0
    2.0701    1.9354    0.0000 C   0  0  0  0  0  0  0  0  0  0  0  0
    2.7845    2.3479    0.0000 C   0  0  0  0  0  0  0  0  0  0  0  0
    3.9987   -2.3691    0.0000 C   0  0  0  0  0  0  0  0  0  0  0  0
    4.7132   -1.9566    0.0000 Cl  0  0  0  0  0  0  0  0  0  0  0  0
  1  2  1  0  0  0  0
  2  3  4  0  0  0  0
  3  4  4  0  0  0  0
  4  5  4  0  0  0  0
  5  6  1  0  0  0  0
  6  7  1  0  0  0  0
  7  8  2  0  0  0  0
  7  9  2  0  0  0  0
  7 10  1  0  0  0  0
 10 11  4  0  0  0  0
 11 12  4  0  0  0  0
 12 13  4  0  0  0  0
 13 14  4  0  0  0  0
 10 14  4  0  0  0  0
 11 15  1  0  0  0  0
 15 16  2  0  0  0  0
 15 17  1  0  0  0  0
 17 18  1  0  0  0  0
 18 19  4  0  0  0  0
 19 20  4  0  0  0  0
 20 21  4  0  0  0  0
 21 22  1  0  0  0  0
 22 23  1  0  0  0  0
 23 24  1  0  0  0  0
 20 24  1  0  0  0  0
 21 25  4  0  0  0  0
 25 26  4  0  0  0  0
 18 26  4  0  0  0  0
 26 27  1  0  0  0  0
  5 28  4  0  0  0  0
  2 28  4  0  0  0  0
 28 29  1  0  0  0  0
M  END
>  <ID>
3548

>  <PREFERRED_NAME>
sitaxentan

>  <CAS_RN>
210421-74-2

>  <SYNONYMS>
sitaxentan
thelin
sitaxentan sodium
sitaxsentan
TBC11251
TBC-11251

>  <URL>
http://drugcentral.org/drugcard/3548/view

$$$$
