sodium gualenate
  -INDIGO-06102311102D

 19 20  0  0  0  0  0  0  0  0999 V2000
    5.4871    2.2958    0.0000 C   0  0  0  0  0  0  0  0  0  0  0  0
    4.6713    2.4188    0.0000 C   0  0  0  0  0  0  0  0  0  0  0  0
    4.3699    3.1868    0.0000 C   0  0  0  0  0  0  0  0  0  0  0  0
    4.1569    1.7738    0.0000 C   0  0  0  0  0  0  0  0  0  0  0  0
    4.5149    1.0305    0.0000 C   0  0  0  0  0  0  0  0  0  0  0  0
    4.1569    0.2872    0.0000 C   0  0  0  0  0  0  0  0  0  0  0  0
    3.3526    0.1036    0.0000 C   0  0  0  0  0  0  0  0  0  0  0  0
    3.1690   -0.7007    0.0000 C   0  0  0  0  0  0  0  0  0  0  0  0
    2.7076    0.6180    0.0000 C   0  0  0  0  0  0  0  0  0  0  0  0
    1.9230    0.3631    0.0000 C   0  0  0  0  0  0  0  0  0  0  0  0
    1.4380    1.0305    0.0000 C   0  0  0  0  0  0  0  0  0  0  0  0
    1.9230    1.6979    0.0000 C   0  0  0  0  0  0  0  0  0  0  0  0
    1.6680    2.4826    0.0000 C   0  0  0  0  0  0  0  0  0  0  0  0
    2.7076    1.4430    0.0000 C   0  0  0  0  0  0  0  0  0  0  0  0
    3.3526    1.9574    0.0000 C   0  0  0  0  0  0  0  0  0  0  0  0
    1.6680   -0.4216    0.0000 S   0  0  0  0  0  0  0  0  0  0  0  0
    1.4131   -1.2062    0.0000 O   0  0  0  0  0  0  0  0  0  0  0  0
    0.8834   -0.1666    0.0000 O   0  0  0  0  0  0  0  0  0  0  0  0
    2.4527   -0.6765    0.0000 O   0  0  0  0  0  0  0  0  0  0  0  0
  1  2  1  0  0  0  0
  2  3  1  0  0  0  0
  2  4  1  0  0  0  0
  4  5  4  0  0  0  0
  5  6  4  0  0  0  0
  6  7  4  0  0  0  0
  7  8  1  0  0  0  0
  7  9  4  0  0  0  0
  9 10  4  0  0  0  0
 10 11  4  0  0  0  0
 11 12  4  0  0  0  0
 12 13  1  0  0  0  0
 12 14  4  0  0  0  0
  9 14  4  0  0  0  0
 14 15  4  0  0  0  0
  4 15  4  0  0  0  0
 10 16  1  0  0  0  0
 16 17  1  0  0  0  0
 16 18  2  0  0  0  0
 16 19  2  0  0  0  0
M  END
>  <ID>
3874

>  <PREFERRED_NAME>
sodium gualenate

>  <CAS_RN>
6223-35-4

>  <SYNONYMS>
sodium gualenate
azulene sulfonate
sodium guaiazulenesulfonate
guaiazulenesulfonic acid sodium

>  <URL>
http://drugcentral.org/drugcard/3874/view

$$$$
