solifenacin
  -INDIGO-06102311052D

 27 31  0  0  1  0  0  0  0  0999 V2000
    4.3830   -3.9584    0.0000 O   0  0  0  0  0  0  0  0  0  0  0  0
    3.6685   -3.5459    0.0000 C   0  0  0  0  0  0  0  0  0  0  0  0
    3.6685   -2.7209    0.0000 O   0  0  0  0  0  0  0  0  0  0  0  0
    4.3830   -2.3084    0.0000 C   0  0  1  0  0  0  0  0  0  0  0  0
    4.3830   -1.4834    0.0000 C   0  0  0  0  0  0  0  0  0  0  0  0
    5.0975   -1.0709    0.0000 N   0  0  0  0  0  0  0  0  0  0  0  0
    5.8119   -1.4834    0.0000 C   0  0  0  0  0  0  0  0  0  0  0  0
    5.8119   -2.3084    0.0000 C   0  0  0  0  0  0  0  0  0  0  0  0
    5.0975   -2.7209    0.0000 C   0  0  0  0  0  0  0  0  0  0  0  0
    5.2350   -2.1709    0.0000 C   0  0  0  0  0  0  0  0  0  0  0  0
    5.2350   -1.6209    0.0000 C   0  0  0  0  0  0  0  0  0  0  0  0
    2.9540   -3.9584    0.0000 N   0  0  0  0  0  0  0  0  0  0  0  0
    2.9540   -4.7834    0.0000 C   0  0  0  0  0  0  0  0  0  0  0  0
    2.2396   -5.1959    0.0000 C   0  0  0  0  0  0  0  0  0  0  0  0
    1.5251   -4.7834    0.0000 C   0  0  0  0  0  0  0  0  0  0  0  0
    0.8106   -5.1959    0.0000 C   0  0  0  0  0  0  0  0  0  0  0  0
    0.0962   -4.7834    0.0000 C   0  0  0  0  0  0  0  0  0  0  0  0
    0.0962   -3.9584    0.0000 C   0  0  0  0  0  0  0  0  0  0  0  0
    0.8106   -3.5459    0.0000 C   0  0  0  0  0  0  0  0  0  0  0  0
    1.5251   -3.9584    0.0000 C   0  0  0  0  0  0  0  0  0  0  0  0
    2.2396   -3.5459    0.0000 C   0  0  2  0  0  0  0  0  0  0  0  0
    2.2396   -2.7209    0.0000 C   0  0  0  0  0  0  0  0  0  0  0  0
    1.5251   -2.3084    0.0000 C   0  0  0  0  0  0  0  0  0  0  0  0
    1.5251   -1.4834    0.0000 C   0  0  0  0  0  0  0  0  0  0  0  0
    2.2396   -1.0709    0.0000 C   0  0  0  0  0  0  0  0  0  0  0  0
    2.9540   -1.4834    0.0000 C   0  0  0  0  0  0  0  0  0  0  0  0
    2.9540   -2.3084    0.0000 C   0  0  0  0  0  0  0  0  0  0  0  0
  1  2  2  0  0  0  0
  2  3  1  0  0  0  0
  4  3  1  1  0  0  0
  4  5  1  0  0  0  0
  5  6  1  0  0  0  0
  6  7  1  0  0  0  0
  7  8  1  0  0  0  0
  8  9  1  0  0  0  0
  4  9  1  0  0  0  0
  9 10  1  0  0  0  0
 10 11  1  0  0  0  0
  6 11  1  0  0  0  0
  2 12  1  0  0  0  0
 12 13  1  0  0  0  0
 13 14  1  0  0  0  0
 14 15  1  0  0  0  0
 15 16  4  0  0  0  0
 16 17  4  0  0  0  0
 17 18  4  0  0  0  0
 18 19  4  0  0  0  0
 19 20  4  0  0  0  0
 15 20  4  0  0  0  0
 20 21  1  0  0  0  0
 12 21  1  0  0  0  0
 21 22  1  6  0  0  0
 22 23  4  0  0  0  0
 23 24  4  0  0  0  0
 24 25  4  0  0  0  0
 25 26  4  0  0  0  0
 26 27  4  0  0  0  0
 22 27  4  0  0  0  0
M  END
>  <ID>
2457

>  <PREFERRED_NAME>
solifenacin

>  <CAS_RN>
242478-37-1

>  <SYNONYMS>
solifenacin
YM-67905
YM-905
solifenacin succinate
vesicare

>  <URL>
http://drugcentral.org/drugcard/2457/view

$$$$
