spirapril
  -INDIGO-06102311052D

 31 33  0  0  1  0  0  0  0  0999 V2000
   -1.7238   -4.1206    0.0000 C   0  0  0  0  0  0  0  0  0  0  0  0
   -0.9136   -4.2766    0.0000 C   0  0  0  0  0  0  0  0  0  0  0  0
   -0.3735   -3.6529    0.0000 O   0  0  0  0  0  0  0  0  0  0  0  0
    0.4366   -3.8088    0.0000 C   0  0  0  0  0  0  0  0  0  0  0  0
    0.7066   -4.5884    0.0000 O   0  0  0  0  0  0  0  0  0  0  0  0
    0.9767   -3.1852    0.0000 C   0  0  2  0  0  0  0  0  0  0  0  0
    0.7066   -2.4056    0.0000 C   0  0  0  0  0  0  0  0  0  0  0  0
   -0.1035   -2.2497    0.0000 C   0  0  0  0  0  0  0  0  0  0  0  0
   -0.3735   -1.4702    0.0000 C   0  0  0  0  0  0  0  0  0  0  0  0
   -1.1837   -1.3143    0.0000 C   0  0  0  0  0  0  0  0  0  0  0  0
   -1.4537   -0.5347    0.0000 C   0  0  0  0  0  0  0  0  0  0  0  0
   -0.9136    0.0889    0.0000 C   0  0  0  0  0  0  0  0  0  0  0  0
   -0.1035   -0.0670    0.0000 C   0  0  0  0  0  0  0  0  0  0  0  0
    0.1665   -0.8465    0.0000 C   0  0  0  0  0  0  0  0  0  0  0  0
    1.7868   -3.3411    0.0000 N   0  0  0  0  0  0  0  0  0  0  0  0
    2.0569   -4.1206    0.0000 C   0  0  1  0  0  0  0  0  0  0  0  0
    1.5168   -4.7443    0.0000 C   0  0  0  0  0  0  0  0  0  0  0  0
    2.8670   -4.2766    0.0000 C   0  0  0  0  0  0  0  0  0  0  0  0
    3.1370   -5.0561    0.0000 O   0  0  0  0  0  0  0  0  0  0  0  0
    3.4071   -3.6529    0.0000 N   0  0  0  0  0  0  0  0  0  0  0  0
    3.2200   -2.8494    0.0000 C   0  0  0  0  0  0  0  0  0  0  0  0
    3.9264   -2.4232    0.0000 C   0  0  0  0  0  0  0  0  0  0  0  0
    4.5500   -2.9633    0.0000 C   0  0  0  0  0  0  0  0  0  0  0  0
    4.2291   -3.7233    0.0000 C   0  0  1  0  0  0  0  0  0  0  0  0
    4.6553   -4.4297    0.0000 C   0  0  0  0  0  0  0  0  0  0  0  0
    4.2567   -5.1520    0.0000 O   0  0  0  0  0  0  0  0  0  0  0  0
    5.4801   -4.4137    0.0000 O   0  0  0  0  0  0  0  0  0  0  0  0
    3.3027   -1.8831    0.0000 S   0  0  0  0  0  0  0  0  0  0  0  0
    3.6237   -1.1231    0.0000 C   0  0  0  0  0  0  0  0  0  0  0  0
    4.4457   -1.1935    0.0000 C   0  0  0  0  0  0  0  0  0  0  0  0
    4.6327   -1.9970    0.0000 S   0  0  0  0  0  0  0  0  0  0  0  0
  1  2  1  0  0  0  0
  2  3  1  0  0  0  0
  3  4  1  0  0  0  0
  4  5  2  0  0  0  0
  4  6  1  0  0  0  0
  6  7  1  0  0  0  0
  7  8  1  0  0  0  0
  8  9  1  0  0  0  0
  9 10  4  0  0  0  0
 10 11  4  0  0  0  0
 11 12  4  0  0  0  0
 12 13  4  0  0  0  0
 13 14  4  0  0  0  0
  9 14  4  0  0  0  0
  6 15  1  6  0  0  0
 15 16  1  0  0  0  0
 16 17  1  6  0  0  0
 16 18  1  0  0  0  0
 18 19  2  0  0  0  0
 18 20  1  0  0  0  0
 20 21  1  0  0  0  0
 21 22  1  0  0  0  0
 22 23  1  0  0  0  0
 23 24  1  0  0  0  0
 20 24  1  0  0  0  0
 24 25  1  1  0  0  0
 25 26  1  0  0  0  0
 25 27  2  0  0  0  0
 22 28  1  0  0  0  0
 28 29  1  0  0  0  0
 29 30  1  0  0  0  0
 30 31  1  0  0  0  0
 22 31  1  0  0  0  0
M  END
>  <ID>
2474

>  <PREFERRED_NAME>
spirapril

>  <CAS_RN>
83647-97-6

>  <SYNONYMS>
spirapril
spirapril hydrochloride
renormax
spirapril HCl

>  <URL>
http://drugcentral.org/drugcard/2474/view

$$$$
