stallimycin
  -INDIGO-06102311102D

 35 37  0  0  0  0  0  0  0  0999 V2000
   -0.6001   -8.8040    0.0000 C   0  0  0  0  0  0  0  0  0  0  0  0
   -0.4286   -7.9970    0.0000 N   0  0  0  0  0  0  0  0  0  0  0  0
   -0.9806   -7.3840    0.0000 C   0  0  0  0  0  0  0  0  0  0  0  0
   -0.5681   -6.6695    0.0000 C   0  0  0  0  0  0  0  0  0  0  0  0
   -0.9037   -5.9158    0.0000 N   0  0  0  0  0  0  0  0  0  0  0  0
   -1.7242   -5.8296    0.0000 C   0  0  0  0  0  0  0  0  0  0  0  0
   -2.2091   -6.4970    0.0000 O   0  0  0  0  0  0  0  0  0  0  0  0
   -2.0597   -5.0759    0.0000 C   0  0  0  0  0  0  0  0  0  0  0  0
   -2.8667   -4.9044    0.0000 C   0  0  0  0  0  0  0  0  0  0  0  0
   -2.9529   -4.0839    0.0000 C   0  0  0  0  0  0  0  0  0  0  0  0
   -3.6674   -3.6714    0.0000 N   0  0  0  0  0  0  0  0  0  0  0  0
   -3.6674   -2.8464    0.0000 C   0  0  0  0  0  0  0  0  0  0  0  0
   -2.9529   -2.4339    0.0000 O   0  0  0  0  0  0  0  0  0  0  0  0
   -4.3819   -2.4339    0.0000 C   0  0  0  0  0  0  0  0  0  0  0  0
   -5.1355   -2.7694    0.0000 C   0  0  0  0  0  0  0  0  0  0  0  0
   -5.6876   -2.1564    0.0000 C   0  0  0  0  0  0  0  0  0  0  0  0
   -6.5081   -2.2426    0.0000 N   0  0  0  0  0  0  0  0  0  0  0  0
   -6.9930   -1.5752    0.0000 C   0  0  0  0  0  0  0  0  0  0  0  0
   -7.8135   -1.6614    0.0000 O   0  0  0  0  0  0  0  0  0  0  0  0
   -5.2751   -1.4419    0.0000 C   0  0  0  0  0  0  0  0  0  0  0  0
   -4.4681   -1.6134    0.0000 N   0  0  0  0  0  0  0  0  0  0  0  0
   -3.8550   -1.0614    0.0000 C   0  0  0  0  0  0  0  0  0  0  0  0
   -2.1992   -3.7483    0.0000 C   0  0  0  0  0  0  0  0  0  0  0  0
   -1.6472   -4.3614    0.0000 N   0  0  0  0  0  0  0  0  0  0  0  0
   -0.8267   -4.2752    0.0000 C   0  0  0  0  0  0  0  0  0  0  0  0
    0.2389   -6.8410    0.0000 C   0  0  0  0  0  0  0  0  0  0  0  0
    0.3251   -7.6615    0.0000 C   0  0  0  0  0  0  0  0  0  0  0  0
    1.0396   -8.0740    0.0000 C   0  0  0  0  0  0  0  0  0  0  0  0
    1.0396   -8.8990    0.0000 O   0  0  0  0  0  0  0  0  0  0  0  0
    1.7540   -7.6615    0.0000 N   0  0  0  0  0  0  0  0  0  0  0  0
    2.4685   -8.0740    0.0000 C   0  0  0  0  0  0  0  0  0  0  0  0
    3.1830   -7.6615    0.0000 C   0  0  0  0  0  0  0  0  0  0  0  0
    3.8974   -8.0740    0.0000 C   0  0  0  0  0  0  0  0  0  0  0  0
    4.6119   -7.6615    0.0000 N   0  0  0  0  0  0  0  0  0  0  0  0
    3.8974   -8.8990    0.0000 N   0  0  0  0  0  0  0  0  0  0  0  0
  1  2  1  0  0  0  0
  2  3  4  0  0  0  0
  3  4  4  0  0  0  0
  4  5  1  0  0  0  0
  5  6  1  0  0  0  0
  6  7  2  0  0  0  0
  6  8  1  0  0  0  0
  8  9  4  0  0  0  0
  9 10  4  0  0  0  0
 10 11  1  0  0  0  0
 11 12  1  0  0  0  0
 12 13  2  0  0  0  0
 12 14  1  0  0  0  0
 14 15  4  0  0  0  0
 15 16  4  0  0  0  0
 16 17  1  0  0  0  0
 17 18  1  0  0  0  0
 18 19  2  0  0  0  0
 16 20  4  0  0  0  0
 20 21  4  0  0  0  0
 14 21  4  0  0  0  0
 21 22  1  0  0  0  0
 10 23  4  0  0  0  0
 23 24  4  0  0  0  0
  8 24  4  0  0  0  0
 24 25  1  0  0  0  0
  4 26  4  0  0  0  0
 26 27  4  0  0  0  0
  2 27  4  0  0  0  0
 27 28  1  0  0  0  0
 28 29  2  0  0  0  0
 28 30  1  0  0  0  0
 30 31  1  0  0  0  0
 31 32  1  0  0  0  0
 32 33  1  0  0  0  0
 33 34  1  0  0  0  0
 33 35  2  0  0  0  0
M  END
>  <ID>
3553

>  <PREFERRED_NAME>
stallimycin

>  <CAS_RN>
636-47-5

>  <SYNONYMS>
stallimycin
Distamycin 3
Distamycin A
stallimycin hydrochloride
stallimycin HCl

>  <URL>
http://drugcentral.org/drugcard/3553/view

$$$$
