stannous fluoride
  -INDIGO-06102311112D

  3  2  0  0  0  0  0  0  0  0999 V2000
    1.6500    0.0000    0.0000 F   0  0  0  0  0  0  0  0  0  0  0  0
    2.4750    0.0000    0.0000 Sn  0  0  0  0  0  0  0  0  0  0  0  0
    3.3000    0.0000    0.0000 F   0  0  0  0  0  0  0  0  0  0  0  0
  1  2  1  0  0  0  0
  2  3  1  0  0  0  0
M  END
>  <ID>
4273

>  <PREFERRED_NAME>
stannous fluoride

>  <CAS_RN>
7783-47-3

>  <SYNONYMS>
stannous fluoride
difluorostannylene
fluoristan
tin difluoride

>  <URL>
http://drugcentral.org/drugcard/4273/view

$$$$
