strychnine
  -INDIGO-06102311052D

 25 31  0  0  1  0  0  0  0  0999 V2000
    2.9057   -4.2339    0.0000 O   0  0  0  0  0  0  0  0  0  0  0  0
    3.3565   -3.5430    0.0000 C   0  0  0  0  0  0  0  0  0  0  0  0
    4.2004   -3.5840    0.0000 C   0  0  0  0  0  0  0  0  0  0  0  0
    4.7270   -2.9050    0.0000 C   0  0  2  0  0  0  0  0  0  0  0  0
    5.5824   -2.8629    0.0000 O   0  0  0  0  0  0  0  0  0  0  0  0
    6.1547   -2.2055    0.0000 C   0  0  0  0  0  0  0  0  0  0  0  0
    5.9979   -1.3846    0.0000 C   0  0  0  0  0  0  0  0  0  0  0  0
    5.3209   -0.9057    0.0000 C   0  0  0  0  0  0  0  0  0  0  0  0
    4.8122   -0.0590    0.0000 C   0  0  0  0  0  0  0  0  0  0  0  0
    3.8987   -0.1040    0.0000 N   0  0  0  0  0  0  0  0  0  0  0  0
    3.0220    0.0334    0.0000 C   0  0  0  0  0  0  0  0  0  0  0  0
    2.5628   -0.6724    0.0000 C   0  0  0  0  0  0  0  0  0  0  0  0
    3.1065   -1.3552    0.0000 C   0  0  1  0  0  0  0  0  0  0  0  0
    3.8379   -0.8821    0.0000 C   0  0  2  0  0  0  0  0  0  0  0  0
    4.7661   -1.0757    0.0000 C   0  0  0  0  0  0  0  0  0  0  0  0
    4.7061   -1.5940    0.0000 C   0  0  2  0  0  0  0  0  0  0  0  0
    4.3043   -2.2493    0.0000 C   0  0  2  0  0  0  0  0  0  0  0  0
    3.4729   -2.1228    0.0000 C   0  0  2  0  0  0  0  0  0  0  0  0
    2.9802   -2.7893    0.0000 N   0  0  0  0  0  0  0  0  0  0  0  0
    2.1966   -2.4837    0.0000 C   0  0  0  0  0  0  0  0  0  0  0  0
    1.4514   -2.8376    0.0000 C   0  0  0  0  0  0  0  0  0  0  0  0
    0.7722   -2.3693    0.0000 C   0  0  0  0  0  0  0  0  0  0  0  0
    0.8383   -1.5469    0.0000 C   0  0  0  0  0  0  0  0  0  0  0  0
    1.5835   -1.1929    0.0000 C   0  0  0  0  0  0  0  0  0  0  0  0
    2.2627   -1.6613    0.0000 C   0  0  0  0  0  0  0  0  0  0  0  0
  1  2  2  0  0  0  0
  2  3  1  0  0  0  0
  4  3  1  1  0  0  0
  4  5  1  0  0  0  0
  5  6  1  0  0  0  0
  6  7  1  0  0  0  0
  7  8  2  0  0  0  0
  8  9  1  0  0  0  0
  9 10  1  0  0  0  0
 10 11  1  0  0  0  0
 11 12  1  0  0  0  0
 13 12  1  1  0  0  0
 13 14  1  0  0  0  0
 10 14  1  0  0  0  0
 14 15  1  1  0  0  0
 16 15  1  1  0  0  0
  8 16  1  0  0  0  0
 16 17  1  0  0  0  0
  4 17  1  0  0  0  0
 17 18  1  1  0  0  0
 13 18  1  0  0  0  0
 18 19  1  6  0  0  0
  2 19  1  0  0  0  0
 19 20  1  0  0  0  0
 20 21  4  0  0  0  0
 21 22  4  0  0  0  0
 22 23  4  0  0  0  0
 23 24  4  0  0  0  0
 24 25  4  0  0  0  0
 13 25  1  0  0  0  0
 20 25  4  0  0  0  0
M  END
>  <ID>
2484

>  <PREFERRED_NAME>
strychnine

>  <CAS_RN>
57-24-9

>  <SYNONYMS>
strychnine
Strychnidin-10-one
(-)-Strychnine
strychnin
strychnine hydrochloride
strychnine sulfate
strychnine HCl

>  <URL>
http://drugcentral.org/drugcard/2484/view

$$$$
