sucrose
  -INDIGO-06102311132D

 23 24  0  0  1  0  0  0  0  0999 V2000
   -0.7787   -4.3063    0.0000 O   0  0  0  0  0  0  0  0  0  0  0  0
   -1.1143   -3.5526    0.0000 C   0  0  0  0  0  0  0  0  0  0  0  0
   -0.6294   -2.8852    0.0000 C   0  0  1  0  0  0  0  0  0  0  0  0
   -0.8843   -2.1006    0.0000 O   0  0  0  0  0  0  0  0  0  0  0  0
   -0.2169   -1.6157    0.0000 C   0  0  1  0  0  0  0  0  0  0  0  0
   -0.7689   -1.0026    0.0000 C   0  0  0  0  0  0  0  0  0  0  0  0
   -1.5759   -1.1741    0.0000 O   0  0  0  0  0  0  0  0  0  0  0  0
    0.3352   -1.0026    0.0000 O   0  0  0  0  0  0  0  0  0  0  0  0
    0.0802   -0.2179    0.0000 C   0  0  1  0  0  0  0  0  0  0  0  0
   -0.7267   -0.0464    0.0000 O   0  0  0  0  0  0  0  0  0  0  0  0
   -0.9817    0.7382    0.0000 C   0  0  2  0  0  0  0  0  0  0  0  0
   -1.7887    0.9097    0.0000 C   0  0  0  0  0  0  0  0  0  0  0  0
   -2.3407    0.2966    0.0000 O   0  0  0  0  0  0  0  0  0  0  0  0
   -0.4296    1.3513    0.0000 C   0  0  1  0  0  0  0  0  0  0  0  0
   -0.6846    2.1359    0.0000 O   0  0  0  0  0  0  0  0  0  0  0  0
    0.3773    1.1798    0.0000 C   0  0  2  0  0  0  0  0  0  0  0  0
    0.9294    1.7929    0.0000 O   0  0  0  0  0  0  0  0  0  0  0  0
    0.6323    0.3952    0.0000 C   0  0  1  0  0  0  0  0  0  0  0  0
    1.4392    0.2236    0.0000 O   0  0  0  0  0  0  0  0  0  0  0  0
    0.4506   -2.1006    0.0000 C   0  0  1  0  0  0  0  0  0  0  0  0
    1.2352   -1.8456    0.0000 O   0  0  0  0  0  0  0  0  0  0  0  0
    0.1956   -2.8852    0.0000 C   0  0  2  0  0  0  0  0  0  0  0  0
    0.6806   -3.5526    0.0000 O   0  0  0  0  0  0  0  0  0  0  0  0
  1  2  1  0  0  0  0
  3  2  1  1  0  0  0
  3  4  1  0  0  0  0
  4  5  1  0  0  0  0
  5  6  1  6  0  0  0
  6  7  1  0  0  0  0
  5  8  1  1  0  0  0
  9  8  1  1  0  0  0
  9 10  1  0  0  0  0
 10 11  1  0  0  0  0
 11 12  1  6  0  0  0
 12 13  1  0  0  0  0
 11 14  1  0  0  0  0
 14 15  1  1  0  0  0
 14 16  1  0  0  0  0
 16 17  1  6  0  0  0
 16 18  1  0  0  0  0
  9 18  1  0  0  0  0
 18 19  1  1  0  0  0
  5 20  1  0  0  0  0
 20 21  1  1  0  0  0
 20 22  1  0  0  0  0
  3 22  1  0  0  0  0
 22 23  1  6  0  0  0
M  END
>  <ID>
4610

>  <PREFERRED_NAME>
sucrose

>  <CAS_RN>
57-50-1

>  <SYNONYMS>
sucrose
cane sugar
saccharose
D-Sucrose

>  <URL>
http://drugcentral.org/drugcard/4610/view

$$$$
