sufentanil
  -INDIGO-06102311052D

 27 29  0  0  0  0  0  0  0  0999 V2000
    0.8764   10.3120    0.0000 C   0  0  0  0  0  0  0  0  0  0  0  0
    1.1586    9.5368    0.0000 C   0  0  0  0  0  0  0  0  0  0  0  0
    0.6283    8.9048    0.0000 C   0  0  0  0  0  0  0  0  0  0  0  0
    0.9105    8.1296    0.0000 O   0  0  0  0  0  0  0  0  0  0  0  0
   -0.1842    9.0481    0.0000 N   0  0  0  0  0  0  0  0  0  0  0  0
   -0.4663    9.8233    0.0000 C   0  0  0  0  0  0  0  0  0  0  0  0
   -1.2788    9.9666    0.0000 C   0  0  0  0  0  0  0  0  0  0  0  0
   -1.5610   10.7418    0.0000 C   0  0  0  0  0  0  0  0  0  0  0  0
   -1.0307   11.3738    0.0000 C   0  0  0  0  0  0  0  0  0  0  0  0
   -0.2182   11.2305    0.0000 C   0  0  0  0  0  0  0  0  0  0  0  0
    0.0640   10.4553    0.0000 C   0  0  0  0  0  0  0  0  0  0  0  0
   -0.7145    8.4161    0.0000 C   0  0  0  0  0  0  0  0  0  0  0  0
   -1.2448    9.0481    0.0000 C   0  0  0  0  0  0  0  0  0  0  0  0
   -2.0572    8.9048    0.0000 O   0  0  0  0  0  0  0  0  0  0  0  0
   -2.5875    9.5368    0.0000 C   0  0  0  0  0  0  0  0  0  0  0  0
    0.0000    8.0036    0.0000 C   0  0  0  0  0  0  0  0  0  0  0  0
    0.0000    7.1786    0.0000 C   0  0  0  0  0  0  0  0  0  0  0  0
   -0.7145    6.7661    0.0000 N   0  0  0  0  0  0  0  0  0  0  0  0
   -0.7145    5.9411    0.0000 C   0  0  0  0  0  0  0  0  0  0  0  0
    0.0000    5.5286    0.0000 C   0  0  0  0  0  0  0  0  0  0  0  0
    0.0000    4.7036    0.0000 C   0  0  0  0  0  0  0  0  0  0  0  0
    0.6674    4.2187    0.0000 C   0  0  0  0  0  0  0  0  0  0  0  0
    0.4125    3.4340    0.0000 C   0  0  0  0  0  0  0  0  0  0  0  0
   -0.4125    3.4340    0.0000 C   0  0  0  0  0  0  0  0  0  0  0  0
   -0.6674    4.2187    0.0000 S   0  0  0  0  0  0  0  0  0  0  0  0
   -1.4289    7.1786    0.0000 C   0  0  0  0  0  0  0  0  0  0  0  0
   -1.4289    8.0036    0.0000 C   0  0  0  0  0  0  0  0  0  0  0  0
  1  2  1  0  0  0  0
  2  3  1  0  0  0  0
  3  4  2  0  0  0  0
  3  5  1  0  0  0  0
  5  6  1  0  0  0  0
  6  7  4  0  0  0  0
  7  8  4  0  0  0  0
  8  9  4  0  0  0  0
  9 10  4  0  0  0  0
 10 11  4  0  0  0  0
  6 11  4  0  0  0  0
  5 12  1  0  0  0  0
 12 13  1  0  0  0  0
 13 14  1  0  0  0  0
 14 15  1  0  0  0  0
 12 16  1  0  0  0  0
 16 17  1  0  0  0  0
 17 18  1  0  0  0  0
 18 19  1  0  0  0  0
 19 20  1  0  0  0  0
 20 21  1  0  0  0  0
 21 22  4  0  0  0  0
 22 23  4  0  0  0  0
 23 24  4  0  0  0  0
 24 25  4  0  0  0  0
 21 25  4  0  0  0  0
 18 26  1  0  0  0  0
 26 27  1  0  0  0  0
 12 27  1  0  0  0  0
M  END
>  <ID>
2491

>  <PREFERRED_NAME>
sufentanil

>  <CAS_RN>
56030-54-7

>  <SYNONYMS>
sufentanil
sulfentanyl
sulfentanil
sulfentanil citrate
sufentanil citrate

>  <URL>
http://drugcentral.org/drugcard/2491/view

$$$$
