sulfametrole
  -INDIGO-06102311052D

 18 19  0  0  0  0  0  0  0  0999 V2000
    2.7512   -0.8866    0.0000 C   0  0  0  0  0  0  0  0  0  0  0  0
    2.0367   -1.2991    0.0000 O   0  0  0  0  0  0  0  0  0  0  0  0
    2.0367   -2.1241    0.0000 C   0  0  0  0  0  0  0  0  0  0  0  0
    2.7041   -2.6090    0.0000 N   0  0  0  0  0  0  0  0  0  0  0  0
    2.4492   -3.3937    0.0000 S   0  0  0  0  0  0  0  0  0  0  0  0
    1.6242   -3.3937    0.0000 N   0  0  0  0  0  0  0  0  0  0  0  0
    1.3693   -2.6090    0.0000 C   0  0  0  0  0  0  0  0  0  0  0  0
    0.5846   -2.3541    0.0000 N   0  0  0  0  0  0  0  0  0  0  0  0
    0.4131   -1.5471    0.0000 S   0  0  0  0  0  0  0  0  0  0  0  0
    1.2201   -1.3756    0.0000 O   0  0  0  0  0  0  0  0  0  0  0  0
   -0.3939   -1.7186    0.0000 O   0  0  0  0  0  0  0  0  0  0  0  0
    0.2416   -0.7401    0.0000 C   0  0  0  0  0  0  0  0  0  0  0  0
   -0.5430   -0.4852    0.0000 C   0  0  0  0  0  0  0  0  0  0  0  0
   -0.7146    0.3218    0.0000 C   0  0  0  0  0  0  0  0  0  0  0  0
   -0.1015    0.8738    0.0000 C   0  0  0  0  0  0  0  0  0  0  0  0
   -0.2730    1.6808    0.0000 N   0  0  0  0  0  0  0  0  0  0  0  0
    0.6832    0.6189    0.0000 C   0  0  0  0  0  0  0  0  0  0  0  0
    0.8547   -0.1881    0.0000 C   0  0  0  0  0  0  0  0  0  0  0  0
  1  2  1  0  0  0  0
  2  3  1  0  0  0  0
  3  4  4  0  0  0  0
  4  5  4  0  0  0  0
  5  6  4  0  0  0  0
  6  7  4  0  0  0  0
  3  7  4  0  0  0  0
  7  8  1  0  0  0  0
  8  9  1  0  0  0  0
  9 10  2  0  0  0  0
  9 11  2  0  0  0  0
  9 12  1  0  0  0  0
 12 13  4  0  0  0  0
 13 14  4  0  0  0  0
 14 15  4  0  0  0  0
 15 16  1  0  0  0  0
 15 17  4  0  0  0  0
 17 18  4  0  0  0  0
 12 18  4  0  0  0  0
M  END
>  <ID>
2518

>  <PREFERRED_NAME>
sulfametrole

>  <CAS_RN>
32909-92-5

>  <SYNONYMS>
sulfametrole

>  <URL>
http://drugcentral.org/drugcard/2518/view

$$$$
