sulfaguanole
  -INDIGO-06102311052D

 21 22  0  0  0  0  0  0  0  0999 V2000
    2.7512   -2.5366    0.0000 C   0  0  0  0  0  0  0  0  0  0  0  0
    2.7512   -3.3616    0.0000 C   0  0  0  0  0  0  0  0  0  0  0  0
    3.4186   -3.8465    0.0000 C   0  0  0  0  0  0  0  0  0  0  0  0
    4.2032   -3.5916    0.0000 C   0  0  0  0  0  0  0  0  0  0  0  0
    3.1637   -4.6312    0.0000 N   0  0  0  0  0  0  0  0  0  0  0  0
    2.3387   -4.6312    0.0000 C   0  0  0  0  0  0  0  0  0  0  0  0
    1.8538   -5.2986    0.0000 N   0  0  0  0  0  0  0  0  0  0  0  0
    1.0333   -5.2124    0.0000 C   0  0  0  0  0  0  0  0  0  0  0  0
    0.6977   -4.4587    0.0000 N   0  0  0  0  0  0  0  0  0  0  0  0
    0.5484   -5.8798    0.0000 N   0  0  0  0  0  0  0  0  0  0  0  0
   -0.2721   -5.7936    0.0000 S   0  0  0  0  0  0  0  0  0  0  0  0
   -0.1859   -4.9731    0.0000 O   0  0  0  0  0  0  0  0  0  0  0  0
   -0.3584   -6.6140    0.0000 O   0  0  0  0  0  0  0  0  0  0  0  0
   -1.0926   -5.7073    0.0000 C   0  0  0  0  0  0  0  0  0  0  0  0
   -1.5775   -6.3748    0.0000 C   0  0  0  0  0  0  0  0  0  0  0  0
   -2.3980   -6.2885    0.0000 C   0  0  0  0  0  0  0  0  0  0  0  0
   -2.7336   -5.5348    0.0000 C   0  0  0  0  0  0  0  0  0  0  0  0
   -3.5541   -5.4486    0.0000 N   0  0  0  0  0  0  0  0  0  0  0  0
   -2.2486   -4.8674    0.0000 C   0  0  0  0  0  0  0  0  0  0  0  0
   -1.4282   -4.9536    0.0000 C   0  0  0  0  0  0  0  0  0  0  0  0
    2.0837   -3.8465    0.0000 O   0  0  0  0  0  0  0  0  0  0  0  0
  1  2  1  0  0  0  0
  2  3  4  0  0  0  0
  3  4  1  0  0  0  0
  3  5  4  0  0  0  0
  5  6  4  0  0  0  0
  6  7  1  0  0  0  0
  7  8  1  0  0  0  0
  8  9  2  0  0  0  0
  8 10  1  0  0  0  0
 10 11  1  0  0  0  0
 11 12  2  0  0  0  0
 11 13  2  0  0  0  0
 11 14  1  0  0  0  0
 14 15  4  0  0  0  0
 15 16  4  0  0  0  0
 16 17  4  0  0  0  0
 17 18  1  0  0  0  0
 17 19  4  0  0  0  0
 19 20  4  0  0  0  0
 14 20  4  0  0  0  0
  6 21  4  0  0  0  0
  2 21  4  0  0  0  0
M  END
>  <ID>
2506

>  <PREFERRED_NAME>
sulfaguanole

>  <CAS_RN>
27031-08-9

>  <SYNONYMS>
sulfaguanole
enterocura
sulfaguanol

>  <URL>
http://drugcentral.org/drugcard/2506/view

$$$$
