suvorexant
  -INDIGO-06102311172D

 32 36  0  0  1  0  0  0  0  0999 V2000
   -4.0040    0.0725    0.0000 C   0  0  0  0  0  0  0  0  0  0  0  0
   -3.2607   -0.2854    0.0000 C   0  0  2  0  0  0  0  0  0  0  0  0
   -2.6157    0.2289    0.0000 C   0  0  0  0  0  0  0  0  0  0  0  0
   -1.8114    0.0454    0.0000 C   0  0  0  0  0  0  0  0  0  0  0  0
   -1.4534   -0.6979    0.0000 N   0  0  0  0  0  0  0  0  0  0  0  0
   -1.8114   -1.4412    0.0000 C   0  0  0  0  0  0  0  0  0  0  0  0
   -2.6157   -1.6248    0.0000 C   0  0  0  0  0  0  0  0  0  0  0  0
   -3.2607   -1.1104    0.0000 N   0  0  0  0  0  0  0  0  0  0  0  0
   -4.0040   -1.4684    0.0000 C   0  0  0  0  0  0  0  0  0  0  0  0
   -4.0657   -2.2911    0.0000 O   0  0  0  0  0  0  0  0  0  0  0  0
   -4.6857   -1.0037    0.0000 C   0  0  0  0  0  0  0  0  0  0  0  0
   -4.6240   -0.1810    0.0000 C   0  0  0  0  0  0  0  0  0  0  0  0
   -5.3057    0.2838    0.0000 C   0  0  0  0  0  0  0  0  0  0  0  0
   -5.2440    1.1065    0.0000 C   0  0  0  0  0  0  0  0  0  0  0  0
   -6.0490   -0.0742    0.0000 C   0  0  0  0  0  0  0  0  0  0  0  0
   -6.1106   -0.8969    0.0000 C   0  0  0  0  0  0  0  0  0  0  0  0
   -5.4290   -1.3616    0.0000 C   0  0  0  0  0  0  0  0  0  0  0  0
   -5.4906   -2.1843    0.0000 N   0  0  0  0  0  0  0  0  0  0  0  0
   -4.8613   -2.7177    0.0000 N   0  0  0  0  0  0  0  0  0  0  0  0
   -5.1741   -3.4811    0.0000 C   0  0  0  0  0  0  0  0  0  0  0  0
   -5.9968   -3.4195    0.0000 C   0  0  0  0  0  0  0  0  0  0  0  0
   -6.1924   -2.6180    0.0000 N   0  0  0  0  0  0  0  0  0  0  0  0
   -0.6284   -0.6979    0.0000 C   0  0  0  0  0  0  0  0  0  0  0  0
   -0.1435   -1.3654    0.0000 N   0  0  0  0  0  0  0  0  0  0  0  0
    0.6411   -1.1104    0.0000 C   0  0  0  0  0  0  0  0  0  0  0  0
    0.6411   -0.2854    0.0000 C   0  0  0  0  0  0  0  0  0  0  0  0
   -0.1435   -0.0305    0.0000 O   0  0  0  0  0  0  0  0  0  0  0  0
    1.3556    0.1271    0.0000 C   0  0  0  0  0  0  0  0  0  0  0  0
    2.0701   -0.2854    0.0000 C   0  0  0  0  0  0  0  0  0  0  0  0
    2.0701   -1.1104    0.0000 C   0  0  0  0  0  0  0  0  0  0  0  0
    2.7845   -1.5229    0.0000 Cl  0  0  0  0  0  0  0  0  0  0  0  0
    1.3556   -1.5229    0.0000 C   0  0  0  0  0  0  0  0  0  0  0  0
  2  1  1  6  0  0  0
  2  3  1  0  0  0  0
  3  4  1  0  0  0  0
  4  5  1  0  0  0  0
  5  6  1  0  0  0  0
  6  7  1  0  0  0  0
  7  8  1  0  0  0  0
  2  8  1  0  0  0  0
  8  9  1  0  0  0  0
  9 10  2  0  0  0  0
  9 11  1  0  0  0  0
 11 12  4  0  0  0  0
 12 13  4  0  0  0  0
 13 14  1  0  0  0  0
 13 15  4  0  0  0  0
 15 16  4  0  0  0  0
 16 17  4  0  0  0  0
 11 17  4  0  0  0  0
 17 18  1  0  0  0  0
 18 19  4  0  0  0  0
 19 20  4  0  0  0  0
 20 21  4  0  0  0  0
 21 22  4  0  0  0  0
 18 22  4  0  0  0  0
  5 23  1  0  0  0  0
 23 24  4  0  0  0  0
 24 25  4  0  0  0  0
 25 26  4  0  0  0  0
 26 27  4  0  0  0  0
 23 27  4  0  0  0  0
 26 28  4  0  0  0  0
 28 29  4  0  0  0  0
 29 30  4  0  0  0  0
 30 31  1  0  0  0  0
 30 32  4  0  0  0  0
 25 32  4  0  0  0  0
M  END
>  <ID>
4881

>  <PREFERRED_NAME>
suvorexant

>  <CAS_RN>
1030377-33-3

>  <SYNONYMS>
suvorexant
MK 4305
belsomra
MK-4305

>  <URL>
http://drugcentral.org/drugcard/4881/view

$$$$
