suxibuzone
  -INDIGO-06102311052D

 32 34  0  0  0  0  0  0  0  0999 V2000
    1.4677   -4.7912    0.0000 C   0  0  0  0  0  0  0  0  0  0  0  0
    1.1322   -5.5449    0.0000 C   0  0  0  0  0  0  0  0  0  0  0  0
    0.3117   -5.6312    0.0000 C   0  0  0  0  0  0  0  0  0  0  0  0
   -0.1732   -4.9637    0.0000 C   0  0  0  0  0  0  0  0  0  0  0  0
   -0.9937   -5.0499    0.0000 C   0  0  0  0  0  0  0  0  0  0  0  0
   -0.9937   -4.2249    0.0000 C   0  0  0  0  0  0  0  0  0  0  0  0
   -0.2792   -3.8124    0.0000 O   0  0  0  0  0  0  0  0  0  0  0  0
    0.4352   -4.2249    0.0000 C   0  0  0  0  0  0  0  0  0  0  0  0
    0.4352   -5.0499    0.0000 O   0  0  0  0  0  0  0  0  0  0  0  0
    1.1497   -3.8124    0.0000 C   0  0  0  0  0  0  0  0  0  0  0  0
    1.8642   -4.2249    0.0000 C   0  0  0  0  0  0  0  0  0  0  0  0
    2.5787   -3.8124    0.0000 C   0  0  0  0  0  0  0  0  0  0  0  0
    3.2931   -4.2249    0.0000 O   0  0  0  0  0  0  0  0  0  0  0  0
    2.5787   -2.9874    0.0000 O   0  0  0  0  0  0  0  0  0  0  0  0
   -0.8222   -5.8569    0.0000 C   0  0  0  0  0  0  0  0  0  0  0  0
   -0.0685   -6.1925    0.0000 O   0  0  0  0  0  0  0  0  0  0  0  0
   -1.5366   -6.2694    0.0000 N   0  0  0  0  0  0  0  0  0  0  0  0
   -2.1497   -5.7174    0.0000 N   0  0  0  0  0  0  0  0  0  0  0  0
   -1.8142   -4.9637    0.0000 C   0  0  0  0  0  0  0  0  0  0  0  0
   -2.2267   -4.2492    0.0000 O   0  0  0  0  0  0  0  0  0  0  0  0
   -2.9567   -5.8889    0.0000 C   0  0  0  0  0  0  0  0  0  0  0  0
   -3.2117   -6.6735    0.0000 C   0  0  0  0  0  0  0  0  0  0  0  0
   -4.0186   -6.8451    0.0000 C   0  0  0  0  0  0  0  0  0  0  0  0
   -4.5707   -6.2320    0.0000 C   0  0  0  0  0  0  0  0  0  0  0  0
   -4.3157   -5.4473    0.0000 C   0  0  0  0  0  0  0  0  0  0  0  0
   -3.5087   -5.2758    0.0000 C   0  0  0  0  0  0  0  0  0  0  0  0
   -1.6229   -7.0899    0.0000 C   0  0  0  0  0  0  0  0  0  0  0  0
   -0.9554   -7.5748    0.0000 C   0  0  0  0  0  0  0  0  0  0  0  0
   -1.0417   -8.3953    0.0000 C   0  0  0  0  0  0  0  0  0  0  0  0
   -1.7954   -8.7309    0.0000 C   0  0  0  0  0  0  0  0  0  0  0  0
   -2.4628   -8.2459    0.0000 C   0  0  0  0  0  0  0  0  0  0  0  0
   -2.3766   -7.4255    0.0000 C   0  0  0  0  0  0  0  0  0  0  0  0
  1  2  1  0  0  0  0
  2  3  1  0  0  0  0
  3  4  1  0  0  0  0
  4  5  1  0  0  0  0
  5  6  1  0  0  0  0
  6  7  1  0  0  0  0
  7  8  1  0  0  0  0
  8  9  2  0  0  0  0
  8 10  1  0  0  0  0
 10 11  1  0  0  0  0
 11 12  1  0  0  0  0
 12 13  1  0  0  0  0
 12 14  2  0  0  0  0
  5 15  1  0  0  0  0
 15 16  2  0  0  0  0
 15 17  1  0  0  0  0
 17 18  1  0  0  0  0
 18 19  1  0  0  0  0
  5 19  1  0  0  0  0
 19 20  2  0  0  0  0
 18 21  1  0  0  0  0
 21 22  4  0  0  0  0
 22 23  4  0  0  0  0
 23 24  4  0  0  0  0
 24 25  4  0  0  0  0
 25 26  4  0  0  0  0
 21 26  4  0  0  0  0
 17 27  1  0  0  0  0
 27 28  4  0  0  0  0
 28 29  4  0  0  0  0
 29 30  4  0  0  0  0
 30 31  4  0  0  0  0
 31 32  4  0  0  0  0
 27 32  4  0  0  0  0
M  END
>  <ID>
2547

>  <PREFERRED_NAME>
suxibuzone

>  <CAS_RN>
27470-51-5

>  <SYNONYMS>
suxibuzone
calibene
danilon
suxibutazone
4-Hydroxymethylbutazolidine hemisuccinate

>  <URL>
http://drugcentral.org/drugcard/2547/view

$$$$
