taltirelin
  -INDIGO-06102311052D

 29 31  0  0  1  0  0  0  0  0999 V2000
   -2.1434    1.2375    0.0000 C   0  0  0  0  0  0  0  0  0  0  0  0
   -1.4289    1.6500    0.0000 N   0  0  0  0  0  0  0  0  0  0  0  0
   -1.4289    2.4750    0.0000 C   0  0  0  0  0  0  0  0  0  0  0  0
   -2.1434    2.8875    0.0000 O   0  0  0  0  0  0  0  0  0  0  0  0
   -0.7145    2.8875    0.0000 C   0  0  0  0  0  0  0  0  0  0  0  0
    0.0000    2.4750    0.0000 C   0  0  2  0  0  0  0  0  0  0  0  0
    0.0000    1.6500    0.0000 N   0  0  0  0  0  0  0  0  0  0  0  0
   -0.7145    1.2375    0.0000 C   0  0  0  0  0  0  0  0  0  0  0  0
   -0.7145    0.4125    0.0000 O   0  0  0  0  0  0  0  0  0  0  0  0
    0.7145    2.8875    0.0000 C   0  0  0  0  0  0  0  0  0  0  0  0
    0.7145    3.7125    0.0000 O   0  0  0  0  0  0  0  0  0  0  0  0
    1.4289    2.4750    0.0000 N   0  0  0  0  0  0  0  0  0  0  0  0
    2.1434    2.8875    0.0000 C   0  0  1  0  0  0  0  0  0  0  0  0
    2.1434    3.7125    0.0000 C   0  0  0  0  0  0  0  0  0  0  0  0
    2.8579    4.1250    0.0000 C   0  0  0  0  0  0  0  0  0  0  0  0
    2.9441    4.9455    0.0000 C   0  0  0  0  0  0  0  0  0  0  0  0
    3.7511    5.1170    0.0000 N   0  0  0  0  0  0  0  0  0  0  0  0
    4.1636    4.4025    0.0000 C   0  0  0  0  0  0  0  0  0  0  0  0
    3.6116    3.7894    0.0000 N   0  0  0  0  0  0  0  0  0  0  0  0
    2.8579    2.4750    0.0000 C   0  0  0  0  0  0  0  0  0  0  0  0
    3.5724    2.8875    0.0000 O   0  0  0  0  0  0  0  0  0  0  0  0
    2.8579    1.6500    0.0000 N   0  0  0  0  0  0  0  0  0  0  0  0
    2.1904    1.1651    0.0000 C   0  0  0  0  0  0  0  0  0  0  0  0
    2.4454    0.3805    0.0000 C   0  0  0  0  0  0  0  0  0  0  0  0
    3.2704    0.3805    0.0000 C   0  0  0  0  0  0  0  0  0  0  0  0
    3.5253    1.1651    0.0000 C   0  0  0  0  0  0  0  0  0  0  0  0
    4.3099    1.4200    0.0000 C   0  0  0  0  0  0  0  0  0  0  0  0
    4.4815    2.2270    0.0000 N   0  0  0  0  0  0  0  0  0  0  0  0
    4.9230    0.8680    0.0000 O   0  0  0  0  0  0  0  0  0  0  0  0
  1  2  1  0  0  0  0
  2  3  1  0  0  0  0
  3  4  2  0  0  0  0
  3  5  1  0  0  0  0
  5  6  1  0  0  0  0
  6  7  1  0  0  0  0
  7  8  1  0  0  0  0
  2  8  1  0  0  0  0
  8  9  2  0  0  0  0
  6 10  1  1  0  0  0
 10 11  2  0  0  0  0
 10 12  1  0  0  0  0
 13 12  1  1  0  0  0
 13 14  1  0  0  0  0
 14 15  1  0  0  0  0
 15 16  4  0  0  0  0
 16 17  4  0  0  0  0
 17 18  4  0  0  0  0
 18 19  4  0  0  0  0
 15 19  4  0  0  0  0
 13 20  1  0  0  0  0
 20 21  2  0  0  0  0
 20 22  1  0  0  0  0
 22 23  1  0  0  0  0
 23 24  1  0  0  0  0
 24 25  1  0  0  0  0
 25 26  1  0  0  0  0
 22 26  1  0  0  0  0
 26 27  1  0  0  0  0
 27 28  1  0  0  0  0
 27 29  2  0  0  0  0
M  STY  1   1 DAT
M  SLB  1   1   1
M  SAL   1  1  19
M  SDT   1 MRV_IMPLICIT_H
M  SDD   1     0.0000    0.0000    DA    ALL  1       1
M  SED   1 IMPL_H1
M  END
>  <ID>
2560

>  <PREFERRED_NAME>
taltirelin

>  <CAS_RN>
103300-74-9

>  <SYNONYMS>
taltirelin
taltirelin hydrate
ceredist
taltirelin tetrahydrate
TA-0910
TA 0910

>  <URL>
http://drugcentral.org/drugcard/2560/view

$$$$
