tasimelteon
  -INDIGO-06102311152D

 18 20  0  0  1  0  0  0  0  0999 V2000
    1.1270   -3.6020    0.0000 C   0  0  0  0  0  0  0  0  0  0  0  0
    1.8414   -3.1895    0.0000 C   0  0  0  0  0  0  0  0  0  0  0  0
    2.5559   -3.6020    0.0000 C   0  0  0  0  0  0  0  0  0  0  0  0
    2.5559   -4.4270    0.0000 O   0  0  0  0  0  0  0  0  0  0  0  0
    3.2704   -3.1895    0.0000 N   0  0  0  0  0  0  0  0  0  0  0  0
    3.9849   -3.6020    0.0000 C   0  0  0  0  0  0  0  0  0  0  0  0
    4.6993   -3.1895    0.0000 C   0  0  2  0  0  0  0  0  0  0  0  0
    5.1118   -2.4750    0.0000 C   0  0  0  0  0  0  0  0  0  0  0  0
    5.5243   -3.1895    0.0000 C   0  0  1  0  0  0  0  0  0  0  0  0
    6.2388   -3.6020    0.0000 C   0  0  0  0  0  0  0  0  0  0  0  0
    6.9533   -3.1895    0.0000 C   0  0  0  0  0  0  0  0  0  0  0  0
    7.1248   -2.3825    0.0000 C   0  0  0  0  0  0  0  0  0  0  0  0
    7.9453   -2.2963    0.0000 C   0  0  0  0  0  0  0  0  0  0  0  0
    8.2808   -3.0499    0.0000 O   0  0  0  0  0  0  0  0  0  0  0  0
    7.6677   -3.6020    0.0000 C   0  0  0  0  0  0  0  0  0  0  0  0
    7.6677   -4.4270    0.0000 C   0  0  0  0  0  0  0  0  0  0  0  0
    6.9533   -4.8395    0.0000 C   0  0  0  0  0  0  0  0  0  0  0  0
    6.2388   -4.4270    0.0000 C   0  0  0  0  0  0  0  0  0  0  0  0
  1  2  1  0  0  0  0
  2  3  1  0  0  0  0
  3  4  2  0  0  0  0
  3  5  1  0  0  0  0
  5  6  1  0  0  0  0
  7  6  1  6  0  0  0
  7  8  1  0  0  0  0
  8  9  1  0  0  0  0
  7  9  1  0  0  0  0
  9 10  1  1  0  0  0
 10 11  4  0  0  0  0
 11 12  1  0  0  0  0
 12 13  1  0  0  0  0
 13 14  1  0  0  0  0
 14 15  1  0  0  0  0
 11 15  4  0  0  0  0
 15 16  4  0  0  0  0
 16 17  4  0  0  0  0
 17 18  4  0  0  0  0
 10 18  4  0  0  0  0
M  END
>  <ID>
4820

>  <PREFERRED_NAME>
tasimelteon

>  <CAS_RN>
609799-22-6

>  <SYNONYMS>
tasimelteon
hetlioz
VEC-162
BMS-214778

>  <URL>
http://drugcentral.org/drugcard/4820/view

$$$$
