taurosteine
  -INDIGO-06102311052D

 14 14  0  0  0  0  0  0  0  0999 V2000
   -0.8612    5.2393    0.0000 O   0  0  0  0  0  0  0  0  0  0  0  0
   -0.8612    4.4143    0.0000 S   0  0  0  0  0  0  0  0  0  0  0  0
   -1.6862    4.4143    0.0000 O   0  0  0  0  0  0  0  0  0  0  0  0
   -0.0362    4.4143    0.0000 O   0  0  0  0  0  0  0  0  0  0  0  0
   -0.8612    3.5893    0.0000 C   0  0  0  0  0  0  0  0  0  0  0  0
   -0.1467    3.1768    0.0000 C   0  0  0  0  0  0  0  0  0  0  0  0
   -0.1467    2.3518    0.0000 N   0  0  0  0  0  0  0  0  0  0  0  0
    0.5678    1.9393    0.0000 C   0  0  0  0  0  0  0  0  0  0  0  0
    1.2822    2.3518    0.0000 O   0  0  0  0  0  0  0  0  0  0  0  0
    0.5678    1.1143    0.0000 C   0  0  0  0  0  0  0  0  0  0  0  0
    1.2352    0.6294    0.0000 C   0  0  0  0  0  0  0  0  0  0  0  0
    0.9803   -0.1553    0.0000 C   0  0  0  0  0  0  0  0  0  0  0  0
    0.1553   -0.1553    0.0000 C   0  0  0  0  0  0  0  0  0  0  0  0
   -0.0997    0.6294    0.0000 S   0  0  0  0  0  0  0  0  0  0  0  0
  1  2  1  0  0  0  0
  2  3  2  0  0  0  0
  2  4  2  0  0  0  0
  2  5  1  0  0  0  0
  5  6  1  0  0  0  0
  6  7  1  0  0  0  0
  7  8  1  0  0  0  0
  8  9  2  0  0  0  0
  8 10  1  0  0  0  0
 10 11  4  0  0  0  0
 11 12  4  0  0  0  0
 12 13  4  0  0  0  0
 13 14  4  0  0  0  0
 10 14  4  0  0  0  0
M  END
>  <ID>
2569

>  <PREFERRED_NAME>
taurosteine

>  <CAS_RN>
124066-33-7

>  <SYNONYMS>
taurosteine

>  <URL>
http://drugcentral.org/drugcard/2569/view

$$$$
