taurine
  -INDIGO-06102311122D

  7  6  0  0  0  0  0  0  0  0999 V2000
    0.1105   -2.0625    0.0000 N   0  0  0  0  0  0  0  0  0  0  0  0
    0.1105   -1.2375    0.0000 C   0  0  0  0  0  0  0  0  0  0  0  0
    0.8250   -0.8250    0.0000 C   0  0  0  0  0  0  0  0  0  0  0  0
    0.8250    0.0000    0.0000 S   0  0  0  0  0  0  0  0  0  0  0  0
    0.8250    0.8250    0.0000 O   0  0  0  0  0  0  0  0  0  0  0  0
    1.6500    0.0000    0.0000 O   0  0  0  0  0  0  0  0  0  0  0  0
    0.0000    0.0000    0.0000 O   0  0  0  0  0  0  0  0  0  0  0  0
  1  2  1  0  0  0  0
  2  3  1  0  0  0  0
  3  4  1  0  0  0  0
  4  5  1  0  0  0  0
  4  6  2  0  0  0  0
  4  7  2  0  0  0  0
M  END
>  <ID>
4486

>  <PREFERRED_NAME>
taurine

>  <CAS_RN>
107-35-7

>  <SYNONYMS>
taurine
2-Aminoethanesulfonic acid
taurine monopotassium
taurine potassium
taurine hydrochloride

>  <URL>
http://drugcentral.org/drugcard/4486/view

$$$$
