tedizolid phosphate
  -INDIGO-06102311172D

 31 34  0  0  1  0  0  0  0  0999 V2000
    0.7145   -2.8875    0.0000 C   0  0  0  0  0  0  0  0  0  0  0  0
    0.7145   -3.7125    0.0000 N   0  0  0  0  0  0  0  0  0  0  0  0
    1.3819   -4.1974    0.0000 N   0  0  0  0  0  0  0  0  0  0  0  0
    1.1270   -4.9820    0.0000 N   0  0  0  0  0  0  0  0  0  0  0  0
    0.3020   -4.9820    0.0000 C   0  0  0  0  0  0  0  0  0  0  0  0
    0.0470   -4.1974    0.0000 N   0  0  0  0  0  0  0  0  0  0  0  0
   -0.1830   -5.6495    0.0000 C   0  0  0  0  0  0  0  0  0  0  0  0
    0.1526   -6.4032    0.0000 C   0  0  0  0  0  0  0  0  0  0  0  0
   -0.3323   -7.0706    0.0000 C   0  0  0  0  0  0  0  0  0  0  0  0
   -1.1528   -6.9844    0.0000 C   0  0  0  0  0  0  0  0  0  0  0  0
   -1.4884   -6.2307    0.0000 C   0  0  0  0  0  0  0  0  0  0  0  0
   -1.0034   -5.5632    0.0000 N   0  0  0  0  0  0  0  0  0  0  0  0
   -1.6377   -7.6518    0.0000 C   0  0  0  0  0  0  0  0  0  0  0  0
   -1.3022   -8.4055    0.0000 C   0  0  0  0  0  0  0  0  0  0  0  0
   -1.7871   -9.0729    0.0000 C   0  0  0  0  0  0  0  0  0  0  0  0
   -2.6076   -8.9867    0.0000 C   0  0  0  0  0  0  0  0  0  0  0  0
   -2.9431   -8.2330    0.0000 C   0  0  0  0  0  0  0  0  0  0  0  0
   -2.4582   -7.5656    0.0000 C   0  0  0  0  0  0  0  0  0  0  0  0
   -2.7938   -6.8119    0.0000 F   0  0  0  0  0  0  0  0  0  0  0  0
   -3.0925   -9.6541    0.0000 N   0  0  0  0  0  0  0  0  0  0  0  0
   -2.8375  -10.4387    0.0000 C   0  0  0  0  0  0  0  0  0  0  0  0
   -3.5050  -10.9237    0.0000 C   0  0  2  0  0  0  0  0  0  0  0  0
   -3.5050  -11.7487    0.0000 C   0  0  0  0  0  0  0  0  0  0  0  0
   -4.2195  -12.1612    0.0000 O   0  0  0  0  0  0  0  0  0  0  0  0
   -4.2195  -12.9862    0.0000 P   0  0  0  0  0  0  0  0  0  0  0  0
   -4.2195  -13.8112    0.0000 O   0  0  0  0  0  0  0  0  0  0  0  0
   -5.0445  -12.9862    0.0000 O   0  0  0  0  0  0  0  0  0  0  0  0
   -3.3945  -12.9862    0.0000 O   0  0  0  0  0  0  0  0  0  0  0  0
   -4.1724  -10.4387    0.0000 O   0  0  0  0  0  0  0  0  0  0  0  0
   -3.9175   -9.6541    0.0000 C   0  0  0  0  0  0  0  0  0  0  0  0
   -4.4024   -8.9867    0.0000 O   0  0  0  0  0  0  0  0  0  0  0  0
  1  2  1  0  0  0  0
  2  3  4  0  0  0  0
  3  4  4  0  0  0  0
  4  5  4  0  0  0  0
  5  6  4  0  0  0  0
  2  6  4  0  0  0  0
  5  7  1  0  0  0  0
  7  8  4  0  0  0  0
  8  9  4  0  0  0  0
  9 10  4  0  0  0  0
 10 11  4  0  0  0  0
 11 12  4  0  0  0  0
  7 12  4  0  0  0  0
 10 13  1  0  0  0  0
 13 14  4  0  0  0  0
 14 15  4  0  0  0  0
 15 16  4  0  0  0  0
 16 17  4  0  0  0  0
 17 18  4  0  0  0  0
 13 18  4  0  0  0  0
 18 19  1  0  0  0  0
 16 20  1  0  0  0  0
 20 21  1  0  0  0  0
 21 22  1  0  0  0  0
 22 23  1  6  0  0  0
 23 24  1  0  0  0  0
 24 25  1  0  0  0  0
 25 26  1  0  0  0  0
 25 27  1  0  0  0  0
 25 28  2  0  0  0  0
 22 29  1  0  0  0  0
 29 30  1  0  0  0  0
 20 30  1  0  0  0  0
 30 31  2  0  0  0  0
M  END
>  <ID>
4873

>  <PREFERRED_NAME>
tedizolid phosphate

>  <CAS_RN>
856867-55-5

>  <SYNONYMS>
tedizolid phosphate
sivextro
torezolid phosphate
TR-701

>  <URL>
http://drugcentral.org/drugcard/4873/view

$$$$
