telavancin
  -INDIGO-06102311102D

121130  0  0  1  0  0  0  0  0999 V2000
  -12.8295    2.5976    0.0000 C   0  0  0  0  0  0  0  0  0  0  0  0
  -12.1150    3.0101    0.0000 C   0  0  0  0  0  0  0  0  0  0  0  0
  -11.4005    2.5976    0.0000 C   0  0  0  0  0  0  0  0  0  0  0  0
  -10.6861    3.0101    0.0000 C   0  0  0  0  0  0  0  0  0  0  0  0
   -9.9716    2.5976    0.0000 C   0  0  0  0  0  0  0  0  0  0  0  0
   -9.2571    3.0101    0.0000 C   0  0  0  0  0  0  0  0  0  0  0  0
   -8.5427    2.5976    0.0000 C   0  0  0  0  0  0  0  0  0  0  0  0
   -7.8282    3.0101    0.0000 C   0  0  0  0  0  0  0  0  0  0  0  0
   -7.1137    2.5976    0.0000 C   0  0  0  0  0  0  0  0  0  0  0  0
   -6.3992    3.0101    0.0000 C   0  0  0  0  0  0  0  0  0  0  0  0
   -5.6848    2.5976    0.0000 N   0  0  0  0  0  0  0  0  0  0  0  0
   -4.9703    3.0101    0.0000 C   0  0  0  0  0  0  0  0  0  0  0  0
   -4.2558    2.5976    0.0000 C   0  0  0  0  0  0  0  0  0  0  0  0
   -3.5414    3.0101    0.0000 N   0  0  0  0  0  0  0  0  0  0  0  0
   -3.5414    3.8351    0.0000 C   0  0  1  0  0  0  0  0  0  0  0  0
   -4.3538    3.6918    0.0000 C   0  0  0  0  0  0  0  0  0  0  0  0
   -2.7289    3.6918    0.0000 C   0  0  0  0  0  0  0  0  0  0  0  0
   -2.1986    4.3238    0.0000 C   0  0  2  0  0  0  0  0  0  0  0  0
   -1.4102    4.1814    0.0000 O   0  0  0  0  0  0  0  0  0  0  0  0
   -1.0595    3.2832    0.0000 C   0  0  2  0  0  0  0  0  0  0  0  0
   -1.5102    2.5922    0.0000 C   0  0  1  0  0  0  0  0  0  0  0  0
   -2.4188    2.2825    0.0000 O   0  0  0  0  0  0  0  0  0  0  0  0
   -1.1371    1.8564    0.0000 C   0  0  2  0  0  0  0  0  0  0  0  0
   -1.7924    1.3909    0.0000 O   0  0  0  0  0  0  0  0  0  0  0  0
   -0.3133    1.8116    0.0000 C   0  0  1  0  0  0  0  0  0  0  0  0
   -0.2035    1.3334    0.0000 C   0  0  0  0  0  0  0  0  0  0  0  0
    1.2296    1.0822    0.0000 O   0  0  0  0  0  0  0  0  0  0  0  0
    0.1374    2.5026    0.0000 O   0  0  0  0  0  0  0  0  0  0  0  0
   -0.1794    3.3406    0.0000 C   0  0  1  0  0  0  0  0  0  0  0  0
    0.3007    4.0657    0.0000 O   0  0  0  0  0  0  0  0  0  0  0  0
    1.2920    3.6416    0.0000 C   0  0  0  0  0  0  0  0  0  0  0  0
    1.2484    2.9008    0.0000 C   0  0  0  0  0  0  0  0  0  0  0  0
    0.6233    3.6075    0.0000 O   0  0  0  0  0  0  0  0  0  0  0  0
    0.4261    4.6090    0.0000 C   0  0  0  0  0  0  0  0  0  0  0  0
    1.2184    4.8958    0.0000 C   0  0  0  0  0  0  0  0  0  0  0  0
    1.5189    5.6435    0.0000 C   0  0  0  0  0  0  0  0  0  0  0  0
    1.0371    6.3042    0.0000 C   0  0  0  0  0  0  0  0  0  0  0  0
    0.2037    6.1266    0.0000 C   0  0  0  0  0  0  0  0  0  0  0  0
   -0.0742    5.3225    0.0000 C   0  0  0  0  0  0  0  0  0  0  0  0
   -0.5890    6.0559    0.0000 Cl  0  0  0  0  0  0  0  0  0  0  0  0
    1.8806    6.5260    0.0000 C   0  0  1  0  0  0  0  0  0  0  0  0
    1.3764    7.2321    0.0000 O   0  0  0  0  0  0  0  0  0  0  0  0
    2.7298    6.4289    0.0000 C   0  0  1  0  0  0  0  0  0  0  0  0
    2.6809    7.3328    0.0000 N   0  0  0  0  0  0  0  0  0  0  0  0
    3.3463    7.9166    0.0000 C   0  0  0  0  0  0  0  0  0  0  0  0
    3.6582    7.0795    0.0000 O   0  0  0  0  0  0  0  0  0  0  0  0
    3.9624    8.6667    0.0000 C   0  0  1  0  0  0  0  0  0  0  0  0
    4.7063    8.8581    0.0000 C   0  0  0  0  0  0  0  0  0  0  0  0
    5.1779    9.6754    0.0000 C   0  0  0  0  0  0  0  0  0  0  0  0
    4.9934   10.5830    0.0000 C   0  0  0  0  0  0  0  0  0  0  0  0
    6.0658   10.0058    0.0000 C   0  0  0  0  0  0  0  0  0  0  0  0
    3.3039    9.2636    0.0000 N   0  0  0  0  0  0  0  0  0  0  0  0
    2.4306    9.4634    0.0000 C   0  0  0  0  0  0  0  0  0  0  0  0
    3.5060    6.0978    0.0000 C   0  0  0  0  0  0  0  0  0  0  0  0
    4.1547    6.8258    0.0000 O   0  0  0  0  0  0  0  0  0  0  0  0
    4.0774    5.4821    0.0000 N   0  0  0  0  0  0  0  0  0  0  0  0
    4.3853    4.7077    0.0000 C   0  0  1  0  0  0  0  0  0  0  0  0
    5.3052    4.7336    0.0000 C   0  0  0  0  0  0  0  0  0  0  0  0
    6.1296    5.3909    0.0000 C   0  0  0  0  0  0  0  0  0  0  0  0
    6.9595    5.3325    0.0000 N   0  0  0  0  0  0  0  0  0  0  0  0
    6.5174    6.1577    0.0000 O   0  0  0  0  0  0  0  0  0  0  0  0
    4.3852    3.8740    0.0000 C   0  0  0  0  0  0  0  0  0  0  0  0
    5.1047    3.4186    0.0000 O   0  0  0  0  0  0  0  0  0  0  0  0
    4.0811    3.0963    0.0000 N   0  0  0  0  0  0  0  0  0  0  0  0
    3.4233    2.5718    0.0000 C   0  0  2  0  0  0  0  0  0  0  0  0
    2.7446    3.0912    0.0000 C   0  0  0  0  0  0  0  0  0  0  0  0
    2.5942    3.9256    0.0000 C   0  0  0  0  0  0  0  0  0  0  0  0
    1.7804    4.2106    0.0000 C   0  0  0  0  0  0  0  0  0  0  0  0
    0.8240    4.1043    0.0000 O   0  0  0  0  0  0  0  0  0  0  0  0
   -0.0514    3.5898    0.0000 C   0  0  0  0  0  0  0  0  0  0  0  0
    0.2384    2.7925    0.0000 C   0  0  0  0  0  0  0  0  0  0  0  0
   -0.1830    2.0938    0.0000 C   0  0  0  0  0  0  0  0  0  0  0  0
   -1.0092    2.1075    0.0000 C   0  0  0  0  0  0  0  0  0  0  0  0
   -1.3858    2.8585    0.0000 C   0  0  0  0  0  0  0  0  0  0  0  0
   -0.9150    3.5602    0.0000 C   0  0  0  0  0  0  0  0  0  0  0  0
   -1.9283    3.7238    0.0000 Cl  0  0  0  0  0  0  0  0  0  0  0  0
   -0.7564    1.2988    0.0000 C   0  0  1  0  0  0  0  0  0  0  0  0
   -1.3746    1.0457    0.0000 O   0  0  0  0  0  0  0  0  0  0  0  0
   -0.2777    0.6072    0.0000 C   0  0  2  0  0  0  0  0  0  0  0  0
    0.5600    0.5234    0.0000 N   0  0  0  0  0  0  0  0  0  0  0  0
    1.3880    0.6660    0.0000 C   0  0  0  0  0  0  0  0  0  0  0  0
    1.8752    1.6116    0.0000 O   0  0  0  0  0  0  0  0  0  0  0  0
    2.2013    0.4469    0.0000 C   0  0  2  0  0  0  0  0  0  0  0  0
    2.8271    1.0199    0.0000 N   0  0  0  0  0  0  0  0  0  0  0  0
    3.2667    1.7385    0.0000 C   0  0  0  0  0  0  0  0  0  0  0  0
    4.1020    1.4746    0.0000 O   0  0  0  0  0  0  0  0  0  0  0  0
    2.3042   -0.4009    0.0000 C   0  0  0  0  0  0  0  0  0  0  0  0
    3.0776   -0.7214    0.0000 C   0  0  0  0  0  0  0  0  0  0  0  0
    3.2129   -1.5397    0.0000 C   0  0  0  0  0  0  0  0  0  0  0  0
    2.5645   -2.0613    0.0000 C   0  0  0  0  0  0  0  0  0  0  0  0
    3.0866   -2.7502    0.0000 O   0  0  0  0  0  0  0  0  0  0  0  0
    1.7755   -1.7785    0.0000 C   0  0  0  0  0  0  0  0  0  0  0  0
    1.6687   -0.9472    0.0000 C   0  0  0  0  0  0  0  0  0  0  0  0
    1.0843   -2.2675    0.0000 C   0  0  0  0  0  0  0  0  0  0  0  0
    1.3247   -3.0566    0.0000 C   0  0  0  0  0  0  0  0  0  0  0  0
    1.9546   -3.6106    0.0000 O   0  0  0  0  0  0  0  0  0  0  0  0
    0.7614   -3.6595    0.0000 C   0  0  0  0  0  0  0  0  0  0  0  0
    0.9998   -4.5376    0.0000 C   0  0  0  0  0  0  0  0  0  0  0  0
    0.7952   -5.4414    0.0000 N   0  0  0  0  0  0  0  0  0  0  0  0
    1.1533   -6.2107    0.0000 C   0  0  0  0  0  0  0  0  0  0  0  0
    0.5834   -6.8737    0.0000 P   0  0  0  0  0  0  0  0  0  0  0  0
   -0.0513   -7.5153    0.0000 O   0  0  0  0  0  0  0  0  0  0  0  0
   -0.2518   -6.6571    0.0000 O   0  0  0  0  0  0  0  0  0  0  0  0
    1.2804   -7.4400    0.0000 O   0  0  0  0  0  0  0  0  0  0  0  0
   -0.0422   -3.4731    0.0000 C   0  0  0  0  0  0  0  0  0  0  0  0
   -0.6478   -4.0692    0.0000 O   0  0  0  0  0  0  0  0  0  0  0  0
   -0.2827   -2.6839    0.0000 C   0  0  0  0  0  0  0  0  0  0  0  0
    0.2806   -2.0811    0.0000 C   0  0  0  0  0  0  0  0  0  0  0  0
   -0.0715   -1.3248    0.0000 C   0  0  2  0  0  0  0  0  0  0  0  0
   -0.7492   -0.8477    0.0000 N   0  0  0  0  0  0  0  0  0  0  0  0
   -0.8357   -0.0214    0.0000 C   0  0  0  0  0  0  0  0  0  0  0  0
   -1.7226   -0.2327    0.0000 O   0  0  0  0  0  0  0  0  0  0  0  0
   -1.0577   -1.7713    0.0000 C   0  0  0  0  0  0  0  0  0  0  0  0
   -2.1734   -1.8834    0.0000 O   0  0  0  0  0  0  0  0  0  0  0  0
   -1.8879   -2.0914    0.0000 O   0  0  0  0  0  0  0  0  0  0  0  0
    2.0479    2.5975    0.0000 C   0  0  0  0  0  0  0  0  0  0  0  0
   -2.4808    5.0991    0.0000 O   0  0  0  0  0  0  0  0  0  0  0  0
   -3.2932    5.2423    0.0000 C   0  0  1  0  0  0  0  0  0  0  0  0
   -3.5754    6.0176    0.0000 C   0  0  0  0  0  0  0  0  0  0  0  0
   -3.8235    4.6103    0.0000 C   0  0  1  0  0  0  0  0  0  0  0  0
   -4.6360    4.7536    0.0000 O   0  0  0  0  0  0  0  0  0  0  0  0
  1  2  1  0  0  0  0
  2  3  1  0  0  0  0
  3  4  1  0  0  0  0
  4  5  1  0  0  0  0
  5  6  1  0  0  0  0
  6  7  1  0  0  0  0
  7  8  1  0  0  0  0
  8  9  1  0  0  0  0
  9 10  1  0  0  0  0
 10 11  1  0  0  0  0
 11 12  1  0  0  0  0
 12 13  1  0  0  0  0
 13 14  1  0  0  0  0
 15 14  1  6  0  0  0
 15 16  1  1  0  0  0
 15 17  1  0  0  0  0
 17 18  1  0  0  0  0
 18 19  1  1  0  0  0
 20 19  1  1  0  0  0
 20 21  1  0  0  0  0
 21 22  1  6  0  0  0
 21 23  1  0  0  0  0
 23 24  1  1  0  0  0
 23 25  1  0  0  0  0
 25 26  1  6  0  0  0
 26 27  1  0  0  0  0
 25 28  1  0  0  0  0
 28 29  1  0  0  0  0
 20 29  1  0  0  0  0
 29 30  1  6  0  0  0
 30 31  1  0  0  0  0
 31 32  4  0  0  0  0
 32 33  1  0  0  0  0
 33 34  1  0  0  0  0
 34 35  4  0  0  0  0
 35 36  4  0  0  0  0
 36 37  4  0  0  0  0
 37 38  4  0  0  0  0
 38 39  4  0  0  0  0
 34 39  4  0  0  0  0
 39 40  1  0  0  0  0
 37 41  1  0  0  0  0
 41 42  1  1  0  0  0
 41 43  1  0  0  0  0
 43 44  1  1  0  0  0
 44 45  1  0  0  0  0
 45 46  2  0  0  0  0
 45 47  1  0  0  0  0
 47 48  1  0  0  0  0
 48 49  1  0  0  0  0
 49 50  1  0  0  0  0
 49 51  1  0  0  0  0
 47 52  1  6  0  0  0
 52 53  1  0  0  0  0
 43 54  1  0  0  0  0
 54 55  2  0  0  0  0
 54 56  1  0  0  0  0
 56 57  1  0  0  0  0
 57 58  1  1  0  0  0
 58 59  1  0  0  0  0
 59 60  1  0  0  0  0
 59 61  2  0  0  0  0
 57 62  1  0  0  0  0
 62 63  2  0  0  0  0
 62 64  1  0  0  0  0
 64 65  1  0  0  0  0
 65 66  1  1  0  0  0
 66 67  4  0  0  0  0
 67 68  4  0  0  0  0
 31 68  4  0  0  0  0
 68 69  1  0  0  0  0
 69 70  1  0  0  0  0
 70 71  4  0  0  0  0
 71 72  4  0  0  0  0
 72 73  4  0  0  0  0
 73 74  4  0  0  0  0
 74 75  4  0  0  0  0
 70 75  4  0  0  0  0
 75 76  1  0  0  0  0
 73 77  1  0  0  0  0
 77 78  1  6  0  0  0
 77 79  1  0  0  0  0
 79 80  1  6  0  0  0
 80 81  1  0  0  0  0
 81 82  2  0  0  0  0
 81 83  1  0  0  0  0
 83 84  1  0  0  0  0
 84 85  1  0  0  0  0
 65 85  1  0  0  0  0
 85 86  2  0  0  0  0
 83 87  1  6  0  0  0
 87 88  4  0  0  0  0
 88 89  4  0  0  0  0
 89 90  4  0  0  0  0
 90 91  1  0  0  0  0
 90 92  4  0  0  0  0
 92 93  4  0  0  0  0
 87 93  4  0  0  0  0
 92 94  1  0  0  0  0
 94 95  4  0  0  0  0
 95 96  1  0  0  0  0
 95 97  4  0  0  0  0
 97 98  1  0  0  0  0
 98 99  1  0  0  0  0
 99100  1  0  0  0  0
100101  1  0  0  0  0
101102  1  0  0  0  0
101103  1  0  0  0  0
101104  2  0  0  0  0
 97105  4  0  0  0  0
105106  1  0  0  0  0
105107  4  0  0  0  0
107108  4  0  0  0  0
 94108  4  0  0  0  0
108109  1  0  0  0  0
109110  1  0  0  0  0
110111  1  0  0  0  0
 79111  1  0  0  0  0
111112  2  0  0  0  0
109113  1  6  0  0  0
113114  1  0  0  0  0
113115  2  0  0  0  0
 66116  4  0  0  0  0
 32116  4  0  0  0  0
 18117  1  0  0  0  0
117118  1  0  0  0  0
118119  1  6  0  0  0
118120  1  0  0  0  0
 15120  1  0  0  0  0
120121  1  6  0  0  0
M  END
>  <ID>
4116

>  <PREFERRED_NAME>
telavancin

>  <CAS_RN>
372151-71-8

>  <SYNONYMS>
telavancin
arbelic
telavancin hydrochloride
vibativ
telavancin HCl

>  <URL>
http://drugcentral.org/drugcard/4116/view

$$$$
