telmisartan
  -INDIGO-06102311052D

 39 44  0  0  0  0  0  0  0  0999 V2000
   -6.1401    0.7066    0.0000 C   0  0  0  0  0  0  0  0  0  0  0  0
   -5.4256    0.2941    0.0000 C   0  0  0  0  0  0  0  0  0  0  0  0
   -4.7111    0.7066    0.0000 C   0  0  0  0  0  0  0  0  0  0  0  0
   -3.9966    0.2941    0.0000 C   0  0  0  0  0  0  0  0  0  0  0  0
   -3.9104   -0.5264    0.0000 N   0  0  0  0  0  0  0  0  0  0  0  0
   -3.1034   -0.6979    0.0000 C   0  0  0  0  0  0  0  0  0  0  0  0
   -2.6909    0.0165    0.0000 C   0  0  0  0  0  0  0  0  0  0  0  0
   -1.8659    0.0165    0.0000 C   0  0  0  0  0  0  0  0  0  0  0  0
   -1.4534   -0.6979    0.0000 C   0  0  0  0  0  0  0  0  0  0  0  0
   -1.8659   -1.4124    0.0000 C   0  0  0  0  0  0  0  0  0  0  0  0
   -2.6909   -1.4124    0.0000 C   0  0  0  0  0  0  0  0  0  0  0  0
   -3.1034   -2.1269    0.0000 C   0  0  0  0  0  0  0  0  0  0  0  0
   -0.6284   -0.6979    0.0000 C   0  0  0  0  0  0  0  0  0  0  0  0
   -0.1435   -1.3654    0.0000 N   0  0  0  0  0  0  0  0  0  0  0  0
    0.6411   -1.1104    0.0000 C   0  0  0  0  0  0  0  0  0  0  0  0
    0.6411   -0.2854    0.0000 C   0  0  0  0  0  0  0  0  0  0  0  0
    1.3556    0.1271    0.0000 C   0  0  0  0  0  0  0  0  0  0  0  0
    2.0701   -0.2854    0.0000 C   0  0  0  0  0  0  0  0  0  0  0  0
    2.0701   -1.1104    0.0000 C   0  0  0  0  0  0  0  0  0  0  0  0
    1.3556   -1.5229    0.0000 C   0  0  0  0  0  0  0  0  0  0  0  0
   -0.1435   -0.0305    0.0000 N   0  0  0  0  0  0  0  0  0  0  0  0
   -0.3984    0.7541    0.0000 C   0  0  0  0  0  0  0  0  0  0  0  0
   -3.2430    0.6296    0.0000 N   0  0  0  0  0  0  0  0  0  0  0  0
   -3.0714    1.4366    0.0000 C   0  0  0  0  0  0  0  0  0  0  0  0
   -2.2868    1.6915    0.0000 C   0  0  0  0  0  0  0  0  0  0  0  0
   -2.1153    2.4985    0.0000 C   0  0  0  0  0  0  0  0  0  0  0  0
   -1.3307    2.7534    0.0000 C   0  0  0  0  0  0  0  0  0  0  0  0
   -0.7176    2.2014    0.0000 C   0  0  0  0  0  0  0  0  0  0  0  0
   -0.8891    1.3944    0.0000 C   0  0  0  0  0  0  0  0  0  0  0  0
   -1.6737    1.1395    0.0000 C   0  0  0  0  0  0  0  0  0  0  0  0
    0.0671    2.4564    0.0000 C   0  0  0  0  0  0  0  0  0  0  0  0
    0.2386    3.2633    0.0000 C   0  0  0  0  0  0  0  0  0  0  0  0
    1.0232    3.5183    0.0000 C   0  0  0  0  0  0  0  0  0  0  0  0
    1.6363    2.9662    0.0000 C   0  0  0  0  0  0  0  0  0  0  0  0
    1.4648    2.1593    0.0000 C   0  0  0  0  0  0  0  0  0  0  0  0
    0.6801    1.9043    0.0000 C   0  0  0  0  0  0  0  0  0  0  0  0
   -0.3745    3.8154    0.0000 C   0  0  0  0  0  0  0  0  0  0  0  0
   -0.2030    4.6223    0.0000 O   0  0  0  0  0  0  0  0  0  0  0  0
   -1.1591    3.5604    0.0000 O   0  0  0  0  0  0  0  0  0  0  0  0
  1  2  1  0  0  0  0
  2  3  1  0  0  0  0
  3  4  1  0  0  0  0
  4  5  4  0  0  0  0
  5  6  4  0  0  0  0
  6  7  4  0  0  0  0
  7  8  4  0  0  0  0
  8  9  4  0  0  0  0
  9 10  4  0  0  0  0
 10 11  4  0  0  0  0
  6 11  4  0  0  0  0
 11 12  1  0  0  0  0
  9 13  1  0  0  0  0
 13 14  4  0  0  0  0
 14 15  4  0  0  0  0
 15 16  4  0  0  0  0
 16 17  4  0  0  0  0
 17 18  4  0  0  0  0
 18 19  4  0  0  0  0
 19 20  4  0  0  0  0
 15 20  4  0  0  0  0
 16 21  4  0  0  0  0
 13 21  4  0  0  0  0
 21 22  1  0  0  0  0
  7 23  4  0  0  0  0
  4 23  4  0  0  0  0
 23 24  1  0  0  0  0
 24 25  1  0  0  0  0
 25 26  4  0  0  0  0
 26 27  4  0  0  0  0
 27 28  4  0  0  0  0
 28 29  4  0  0  0  0
 29 30  4  0  0  0  0
 25 30  4  0  0  0  0
 28 31  1  0  0  0  0
 31 32  4  0  0  0  0
 32 33  4  0  0  0  0
 33 34  4  0  0  0  0
 34 35  4  0  0  0  0
 35 36  4  0  0  0  0
 31 36  4  0  0  0  0
 32 37  1  0  0  0  0
 37 38  1  0  0  0  0
 37 39  2  0  0  0  0
M  END
>  <ID>
2583

>  <PREFERRED_NAME>
telmisartan

>  <CAS_RN>
144701-48-4

>  <SYNONYMS>
telmisartan
tolura
micardis
pritor

>  <URL>
http://drugcentral.org/drugcard/2583/view

$$$$
