temocapril
  -INDIGO-06102311052D

 32 34  0  0  1  0  0  0  0  0999 V2000
   -2.0133   -1.3719    0.0000 C   0  0  0  0  0  0  0  0  0  0  0  0
   -2.0133   -2.1969    0.0000 C   0  0  0  0  0  0  0  0  0  0  0  0
   -1.2988   -2.6094    0.0000 O   0  0  0  0  0  0  0  0  0  0  0  0
   -1.2988   -3.4344    0.0000 C   0  0  0  0  0  0  0  0  0  0  0  0
   -2.0133   -3.8469    0.0000 O   0  0  0  0  0  0  0  0  0  0  0  0
   -0.5844   -3.8469    0.0000 C   0  0  2  0  0  0  0  0  0  0  0  0
    0.1301   -3.4344    0.0000 C   0  0  0  0  0  0  0  0  0  0  0  0
    0.1301   -2.6094    0.0000 C   0  0  0  0  0  0  0  0  0  0  0  0
    0.8446   -2.1969    0.0000 C   0  0  0  0  0  0  0  0  0  0  0  0
    0.8446   -1.3719    0.0000 C   0  0  0  0  0  0  0  0  0  0  0  0
    1.5590   -0.9594    0.0000 C   0  0  0  0  0  0  0  0  0  0  0  0
    2.2735   -1.3719    0.0000 C   0  0  0  0  0  0  0  0  0  0  0  0
    2.2735   -2.1969    0.0000 C   0  0  0  0  0  0  0  0  0  0  0  0
    1.5590   -2.6094    0.0000 C   0  0  0  0  0  0  0  0  0  0  0  0
   -0.5844   -4.6719    0.0000 N   0  0  0  0  0  0  0  0  0  0  0  0
    0.1301   -5.0844    0.0000 C   0  0  1  0  0  0  0  0  0  0  0  0
    0.8117   -4.6196    0.0000 C   0  0  0  0  0  0  0  0  0  0  0  0
    1.6001   -4.8628    0.0000 S   0  0  0  0  0  0  0  0  0  0  0  0
    1.9015   -5.6308    0.0000 C   0  0  1  0  0  0  0  0  0  0  0  0
    1.4890   -6.3452    0.0000 C   0  0  0  0  0  0  0  0  0  0  0  0
    0.6732   -6.4682    0.0000 N   0  0  0  0  0  0  0  0  0  0  0  0
    0.4300   -7.2565    0.0000 C   0  0  0  0  0  0  0  0  0  0  0  0
    0.9912   -7.8613    0.0000 C   0  0  0  0  0  0  0  0  0  0  0  0
    0.7480   -8.6497    0.0000 O   0  0  0  0  0  0  0  0  0  0  0  0
    1.7955   -7.6777    0.0000 O   0  0  0  0  0  0  0  0  0  0  0  0
    0.0684   -5.9070    0.0000 C   0  0  0  0  0  0  0  0  0  0  0  0
   -0.6995   -6.2085    0.0000 O   0  0  0  0  0  0  0  0  0  0  0  0
    2.7242   -5.6924    0.0000 C   0  0  0  0  0  0  0  0  0  0  0  0
    3.2576   -5.0631    0.0000 C   0  0  0  0  0  0  0  0  0  0  0  0
    4.0210   -5.3759    0.0000 C   0  0  0  0  0  0  0  0  0  0  0  0
    3.9594   -6.1986    0.0000 C   0  0  0  0  0  0  0  0  0  0  0  0
    3.1579   -6.3942    0.0000 S   0  0  0  0  0  0  0  0  0  0  0  0
  1  2  1  0  0  0  0
  2  3  1  0  0  0  0
  3  4  1  0  0  0  0
  4  5  2  0  0  0  0
  4  6  1  0  0  0  0
  6  7  1  0  0  0  0
  7  8  1  0  0  0  0
  8  9  1  0  0  0  0
  9 10  4  0  0  0  0
 10 11  4  0  0  0  0
 11 12  4  0  0  0  0
 12 13  4  0  0  0  0
 13 14  4  0  0  0  0
  9 14  4  0  0  0  0
  6 15  1  6  0  0  0
 16 15  1  1  0  0  0
 16 17  1  0  0  0  0
 17 18  1  0  0  0  0
 18 19  1  0  0  0  0
 19 20  1  0  0  0  0
 20 21  1  0  0  0  0
 21 22  1  0  0  0  0
 22 23  1  0  0  0  0
 23 24  1  0  0  0  0
 23 25  2  0  0  0  0
 21 26  1  0  0  0  0
 16 26  1  0  0  0  0
 26 27  2  0  0  0  0
 19 28  1  6  0  0  0
 28 29  4  0  0  0  0
 29 30  4  0  0  0  0
 30 31  4  0  0  0  0
 31 32  4  0  0  0  0
 28 32  4  0  0  0  0
M  END
>  <ID>
2586

>  <PREFERRED_NAME>
temocapril

>  <CAS_RN>
111902-57-9

>  <SYNONYMS>
temocapril
temocapril hydrochloride
CS-622
temocapril HCl

>  <URL>
http://drugcentral.org/drugcard/2586/view

$$$$
