tenapanor
  -INDIGO-06102311212D

 74 79  0  0  1  0  0  0  0  0999 V2000
   15.0039   -0.4125    0.0000 C   0  0  0  0  0  0  0  0  0  0  0  0
   15.7184   -0.8250    0.0000 N   0  0  0  0  0  0  0  0  0  0  0  0
   16.4328   -0.4125    0.0000 C   0  0  0  0  0  0  0  0  0  0  0  0
   17.1473   -0.8250    0.0000 C   0  0  1  0  0  0  0  0  0  0  0  0
   17.8618   -0.4125    0.0000 C   0  0  0  0  0  0  0  0  0  0  0  0
   17.8618    0.4125    0.0000 C   0  0  0  0  0  0  0  0  0  0  0  0
   18.5762    0.8250    0.0000 C   0  0  0  0  0  0  0  0  0  0  0  0
   19.2907    0.4125    0.0000 C   0  0  0  0  0  0  0  0  0  0  0  0
   19.2907   -0.4125    0.0000 C   0  0  0  0  0  0  0  0  0  0  0  0
   18.5762   -0.8250    0.0000 C   0  0  0  0  0  0  0  0  0  0  0  0
   20.0052   -0.8250    0.0000 S   0  0  0  0  0  0  0  0  0  0  0  0
   20.4177   -0.1105    0.0000 O   0  0  0  0  0  0  0  0  0  0  0  0
   19.5927   -1.5395    0.0000 O   0  0  0  0  0  0  0  0  0  0  0  0
   20.7197   -1.2375    0.0000 N   0  0  0  0  0  0  0  0  0  0  0  0
   21.4341   -0.8250    0.0000 C   0  0  0  0  0  0  0  0  0  0  0  0
   22.1486   -1.2375    0.0000 C   0  0  0  0  0  0  0  0  0  0  0  0
   22.8631   -0.8250    0.0000 O   0  0  0  0  0  0  0  0  0  0  0  0
   23.5775   -1.2375    0.0000 C   0  0  0  0  0  0  0  0  0  0  0  0
   24.2920   -0.8250    0.0000 C   0  0  0  0  0  0  0  0  0  0  0  0
   25.0065   -1.2375    0.0000 O   0  0  0  0  0  0  0  0  0  0  0  0
   25.7210   -0.8250    0.0000 C   0  0  0  0  0  0  0  0  0  0  0  0
   26.4354   -1.2375    0.0000 C   0  0  0  0  0  0  0  0  0  0  0  0
   27.1499   -0.8250    0.0000 N   0  0  0  0  0  0  0  0  0  0  0  0
   27.8644   -1.2375    0.0000 C   0  0  0  0  0  0  0  0  0  0  0  0
   27.8644   -2.0625    0.0000 O   0  0  0  0  0  0  0  0  0  0  0  0
   28.5788   -0.8250    0.0000 N   0  0  0  0  0  0  0  0  0  0  0  0
   29.2933   -1.2375    0.0000 C   0  0  0  0  0  0  0  0  0  0  0  0
   30.0078   -0.8250    0.0000 C   0  0  0  0  0  0  0  0  0  0  0  0
   30.7223   -1.2375    0.0000 C   0  0  0  0  0  0  0  0  0  0  0  0
   31.4367   -0.8250    0.0000 C   0  0  0  0  0  0  0  0  0  0  0  0
   32.1512   -1.2375    0.0000 N   0  0  0  0  0  0  0  0  0  0  0  0
   32.8657   -0.8250    0.0000 C   0  0  0  0  0  0  0  0  0  0  0  0
   32.8657    0.0000    0.0000 O   0  0  0  0  0  0  0  0  0  0  0  0
   33.5801   -1.2375    0.0000 N   0  0  0  0  0  0  0  0  0  0  0  0
   34.2946   -0.8250    0.0000 C   0  0  0  0  0  0  0  0  0  0  0  0
   35.0091   -1.2375    0.0000 C   0  0  0  0  0  0  0  0  0  0  0  0
   35.7235   -0.8250    0.0000 O   0  0  0  0  0  0  0  0  0  0  0  0
   36.4380   -1.2375    0.0000 C   0  0  0  0  0  0  0  0  0  0  0  0
   37.1525   -0.8250    0.0000 C   0  0  0  0  0  0  0  0  0  0  0  0
   37.8670   -1.2375    0.0000 O   0  0  0  0  0  0  0  0  0  0  0  0
   38.5814   -0.8250    0.0000 C   0  0  0  0  0  0  0  0  0  0  0  0
   39.2959   -1.2375    0.0000 C   0  0  0  0  0  0  0  0  0  0  0  0
   40.0104   -0.8250    0.0000 N   0  0  0  0  0  0  0  0  0  0  0  0
   40.7248   -1.2375    0.0000 S   0  0  0  0  0  0  0  0  0  0  0  0
   41.1373   -0.5230    0.0000 O   0  0  0  0  0  0  0  0  0  0  0  0
   40.3123   -1.9520    0.0000 O   0  0  0  0  0  0  0  0  0  0  0  0
   41.4393   -1.6500    0.0000 C   0  0  0  0  0  0  0  0  0  0  0  0
   42.1538   -1.2375    0.0000 C   0  0  0  0  0  0  0  0  0  0  0  0
   42.8683   -1.6500    0.0000 C   0  0  0  0  0  0  0  0  0  0  0  0
   42.8683   -2.4750    0.0000 C   0  0  0  0  0  0  0  0  0  0  0  0
   42.1538   -2.8875    0.0000 C   0  0  0  0  0  0  0  0  0  0  0  0
   41.4393   -2.4750    0.0000 C   0  0  0  0  0  0  0  0  0  0  0  0
   43.5827   -1.2375    0.0000 C   0  0  2  0  0  0  0  0  0  0  0  0
   43.5827   -0.4125    0.0000 C   0  0  0  0  0  0  0  0  0  0  0  0
   44.2972    0.0000    0.0000 N   0  0  0  0  0  0  0  0  0  0  0  0
   44.2972    0.8250    0.0000 C   0  0  0  0  0  0  0  0  0  0  0  0
   45.0117   -0.4125    0.0000 C   0  0  0  0  0  0  0  0  0  0  0  0
   45.0117   -1.2375    0.0000 C   0  0  0  0  0  0  0  0  0  0  0  0
   45.7261   -1.6500    0.0000 C   0  0  0  0  0  0  0  0  0  0  0  0
   46.4406   -1.2375    0.0000 Cl  0  0  0  0  0  0  0  0  0  0  0  0
   45.7261   -2.4750    0.0000 C   0  0  0  0  0  0  0  0  0  0  0  0
   45.0117   -2.8875    0.0000 C   0  0  0  0  0  0  0  0  0  0  0  0
   45.0117   -3.7125    0.0000 Cl  0  0  0  0  0  0  0  0  0  0  0  0
   44.2972   -2.4750    0.0000 C   0  0  0  0  0  0  0  0  0  0  0  0
   44.2972   -1.6500    0.0000 C   0  0  0  0  0  0  0  0  0  0  0  0
   17.1473   -1.6500    0.0000 C   0  0  0  0  0  0  0  0  0  0  0  0
   17.8618   -2.0625    0.0000 C   0  0  0  0  0  0  0  0  0  0  0  0
   17.8618   -2.8875    0.0000 C   0  0  0  0  0  0  0  0  0  0  0  0
   18.5762   -3.3000    0.0000 Cl  0  0  0  0  0  0  0  0  0  0  0  0
   17.1473   -3.3000    0.0000 C   0  0  0  0  0  0  0  0  0  0  0  0
   16.4328   -2.8875    0.0000 C   0  0  0  0  0  0  0  0  0  0  0  0
   15.7184   -3.3000    0.0000 Cl  0  0  0  0  0  0  0  0  0  0  0  0
   16.4328   -2.0625    0.0000 C   0  0  0  0  0  0  0  0  0  0  0  0
   15.7184   -1.6500    0.0000 C   0  0  0  0  0  0  0  0  0  0  0  0
  1  2  1  0  0  0  0
  2  3  1  0  0  0  0
  3  4  1  0  0  0  0
  4  5  1  1  0  0  0
  5  6  4  0  0  0  0
  6  7  4  0  0  0  0
  7  8  4  0  0  0  0
  8  9  4  0  0  0  0
  9 10  4  0  0  0  0
  5 10  4  0  0  0  0
  9 11  1  0  0  0  0
 11 12  2  0  0  0  0
 11 13  2  0  0  0  0
 11 14  1  0  0  0  0
 14 15  1  0  0  0  0
 15 16  1  0  0  0  0
 16 17  1  0  0  0  0
 17 18  1  0  0  0  0
 18 19  1  0  0  0  0
 19 20  1  0  0  0  0
 20 21  1  0  0  0  0
 21 22  1  0  0  0  0
 22 23  1  0  0  0  0
 23 24  1  0  0  0  0
 24 25  2  0  0  0  0
 24 26  1  0  0  0  0
 26 27  1  0  0  0  0
 27 28  1  0  0  0  0
 28 29  1  0  0  0  0
 29 30  1  0  0  0  0
 30 31  1  0  0  0  0
 31 32  1  0  0  0  0
 32 33  2  0  0  0  0
 32 34  1  0  0  0  0
 34 35  1  0  0  0  0
 35 36  1  0  0  0  0
 36 37  1  0  0  0  0
 37 38  1  0  0  0  0
 38 39  1  0  0  0  0
 39 40  1  0  0  0  0
 40 41  1  0  0  0  0
 41 42  1  0  0  0  0
 42 43  1  0  0  0  0
 43 44  1  0  0  0  0
 44 45  2  0  0  0  0
 44 46  2  0  0  0  0
 44 47  1  0  0  0  0
 47 48  4  0  0  0  0
 48 49  4  0  0  0  0
 49 50  4  0  0  0  0
 50 51  4  0  0  0  0
 51 52  4  0  0  0  0
 47 52  4  0  0  0  0
 53 49  1  6  0  0  0
 53 54  1  0  0  0  0
 54 55  1  0  0  0  0
 55 56  1  0  0  0  0
 55 57  1  0  0  0  0
 57 58  1  0  0  0  0
 58 59  4  0  0  0  0
 59 60  1  0  0  0  0
 59 61  4  0  0  0  0
 61 62  4  0  0  0  0
 62 63  1  0  0  0  0
 62 64  4  0  0  0  0
 64 65  4  0  0  0  0
 53 65  1  0  0  0  0
 58 65  4  0  0  0  0
  4 66  1  0  0  0  0
 66 67  4  0  0  0  0
 67 68  4  0  0  0  0
 68 69  1  0  0  0  0
 68 70  4  0  0  0  0
 70 71  4  0  0  0  0
 71 72  1  0  0  0  0
 71 73  4  0  0  0  0
 66 73  4  0  0  0  0
 73 74  1  0  0  0  0
  2 74  1  0  0  0  0
M  END
>  <ID>
5349

>  <PREFERRED_NAME>
tenapanor

>  <CAS_RN>
1234423-95-0

>  <SYNONYMS>
tenapanor
tenapanor hydrochloride
RDX5791
AZD1722
AZD-1722
AZD1722-hydrochloride
KHK-7791
RDX-5791
ibsrela

>  <URL>
http://drugcentral.org/drugcard/5349/view

$$$$
