tenofovir alafenamide
  -INDIGO-06102311182D

 33 35  0  0  1  0  0  0  0  0999 V2000
   -4.4258   -6.9307    0.0000 C   0  0  0  0  0  0  0  0  0  0  0  0
   -3.6188   -6.7592    0.0000 C   0  0  0  0  0  0  0  0  0  0  0  0
   -3.0668   -7.3723    0.0000 C   0  0  0  0  0  0  0  0  0  0  0  0
   -3.3639   -5.9746    0.0000 O   0  0  0  0  0  0  0  0  0  0  0  0
   -2.5569   -5.8031    0.0000 C   0  0  0  0  0  0  0  0  0  0  0  0
   -2.0049   -6.4162    0.0000 O   0  0  0  0  0  0  0  0  0  0  0  0
   -2.3020   -5.0184    0.0000 C   0  0  2  0  0  0  0  0  0  0  0  0
   -2.8540   -4.4054    0.0000 C   0  0  0  0  0  0  0  0  0  0  0  0
   -1.4950   -4.8469    0.0000 N   0  0  0  0  0  0  0  0  0  0  0  0
   -1.2400   -4.0623    0.0000 P   0  0  2  0  0  0  0  0  0  0  0  0
   -0.4554   -4.3172    0.0000 O   0  0  0  0  0  0  0  0  0  0  0  0
   -0.9851   -3.2777    0.0000 C   0  0  0  0  0  0  0  0  0  0  0  0
   -0.1781   -3.1062    0.0000 O   0  0  0  0  0  0  0  0  0  0  0  0
    0.0768   -2.3215    0.0000 C   0  0  2  0  0  0  0  0  0  0  0  0
   -0.4752   -1.7084    0.0000 C   0  0  0  0  0  0  0  0  0  0  0  0
    0.8838   -2.1500    0.0000 C   0  0  0  0  0  0  0  0  0  0  0  0
    1.1387   -1.3654    0.0000 N   0  0  0  0  0  0  0  0  0  0  0  0
    0.6538   -0.6979    0.0000 C   0  0  0  0  0  0  0  0  0  0  0  0
    1.1387   -0.0305    0.0000 N   0  0  0  0  0  0  0  0  0  0  0  0
    1.9233   -0.2854    0.0000 C   0  0  0  0  0  0  0  0  0  0  0  0
    2.6378    0.1271    0.0000 C   0  0  0  0  0  0  0  0  0  0  0  0
    2.6378    0.9521    0.0000 N   0  0  0  0  0  0  0  0  0  0  0  0
    3.3523   -0.2854    0.0000 N   0  0  0  0  0  0  0  0  0  0  0  0
    3.3523   -1.1104    0.0000 C   0  0  0  0  0  0  0  0  0  0  0  0
    2.6378   -1.5229    0.0000 N   0  0  0  0  0  0  0  0  0  0  0  0
    1.9233   -1.1104    0.0000 C   0  0  0  0  0  0  0  0  0  0  0  0
   -2.0247   -3.8074    0.0000 O   0  0  0  0  0  0  0  0  0  0  0  0
   -2.1962   -3.0004    0.0000 C   0  0  0  0  0  0  0  0  0  0  0  0
   -2.9808   -2.7455    0.0000 C   0  0  0  0  0  0  0  0  0  0  0  0
   -3.1523   -1.9385    0.0000 C   0  0  0  0  0  0  0  0  0  0  0  0
   -2.5392   -1.3864    0.0000 C   0  0  0  0  0  0  0  0  0  0  0  0
   -1.7546   -1.6414    0.0000 C   0  0  0  0  0  0  0  0  0  0  0  0
   -1.5831   -2.4484    0.0000 C   0  0  0  0  0  0  0  0  0  0  0  0
  1  2  1  0  0  0  0
  2  3  1  0  0  0  0
  2  4  1  0  0  0  0
  4  5  1  0  0  0  0
  5  6  2  0  0  0  0
  5  7  1  0  0  0  0
  7  8  1  6  0  0  0
  7  9  1  0  0  0  0
 10  9  1  1  0  0  0
 10 11  2  0  0  0  0
 10 12  1  0  0  0  0
 12 13  1  0  0  0  0
 13 14  1  0  0  0  0
 14 15  1  6  0  0  0
 14 16  1  0  0  0  0
 16 17  1  0  0  0  0
 17 18  4  0  0  0  0
 18 19  4  0  0  0  0
 19 20  4  0  0  0  0
 20 21  4  0  0  0  0
 21 22  1  0  0  0  0
 21 23  4  0  0  0  0
 23 24  4  0  0  0  0
 24 25  4  0  0  0  0
 25 26  4  0  0  0  0
 17 26  4  0  0  0  0
 20 26  4  0  0  0  0
 10 27  1  6  0  0  0
 27 28  1  0  0  0  0
 28 29  4  0  0  0  0
 29 30  4  0  0  0  0
 30 31  4  0  0  0  0
 31 32  4  0  0  0  0
 32 33  4  0  0  0  0
 28 33  4  0  0  0  0
M  END
>  <ID>
4944

>  <PREFERRED_NAME>
tenofovir alafenamide

>  <CAS_RN>
379270-37-8

>  <SYNONYMS>
tenofovir alafenamide
GS 7340
tenofovir alagenamide
tenofovir alafenamide fumarate
GS-7340

>  <URL>
http://drugcentral.org/drugcard/4944/view

$$$$
