terizidone
  -INDIGO-06102311052D

 22 24  0  0  0  0  0  0  0  0999 V2000
    1.4289   -1.6500    0.0000 O   0  0  0  0  0  0  0  0  0  0  0  0
    1.4289   -2.4750    0.0000 C   0  0  0  0  0  0  0  0  0  0  0  0
    2.0964   -2.9599    0.0000 N   0  0  0  0  0  0  0  0  0  0  0  0
    1.8414   -3.7445    0.0000 O   0  0  0  0  0  0  0  0  0  0  0  0
    1.0164   -3.7445    0.0000 C   0  0  0  0  0  0  0  0  0  0  0  0
    0.7615   -2.9599    0.0000 C   0  0  0  0  0  0  0  0  0  0  0  0
   -0.0231   -2.7050    0.0000 N   0  0  0  0  0  0  0  0  0  0  0  0
   -0.6362   -3.2570    0.0000 C   0  0  0  0  0  0  0  0  0  0  0  0
   -1.4208   -3.0021    0.0000 C   0  0  0  0  0  0  0  0  0  0  0  0
   -2.0339   -3.5541    0.0000 C   0  0  0  0  0  0  0  0  0  0  0  0
   -2.8186   -3.2992    0.0000 C   0  0  0  0  0  0  0  0  0  0  0  0
   -2.9901   -2.4922    0.0000 C   0  0  0  0  0  0  0  0  0  0  0  0
   -3.7747   -2.2373    0.0000 C   0  0  0  0  0  0  0  0  0  0  0  0
   -4.3878   -2.7893    0.0000 N   0  0  0  0  0  0  0  0  0  0  0  0
   -5.1724   -2.5344    0.0000 C   0  0  0  0  0  0  0  0  0  0  0  0
   -5.8399   -3.0193    0.0000 C   0  0  0  0  0  0  0  0  0  0  0  0
   -6.5073   -2.5344    0.0000 O   0  0  0  0  0  0  0  0  0  0  0  0
   -6.2524   -1.7497    0.0000 N   0  0  0  0  0  0  0  0  0  0  0  0
   -5.4274   -1.7497    0.0000 C   0  0  0  0  0  0  0  0  0  0  0  0
   -4.9424   -1.0823    0.0000 O   0  0  0  0  0  0  0  0  0  0  0  0
   -2.3770   -1.9402    0.0000 C   0  0  0  0  0  0  0  0  0  0  0  0
   -1.5924   -2.1951    0.0000 C   0  0  0  0  0  0  0  0  0  0  0  0
  1  2  2  0  0  0  0
  2  3  1  0  0  0  0
  3  4  1  0  0  0  0
  4  5  1  0  0  0  0
  5  6  1  0  0  0  0
  2  6  1  0  0  0  0
  6  7  1  0  0  0  0
  7  8  2  0  0  0  0
  8  9  1  0  0  0  0
  9 10  4  0  0  0  0
 10 11  4  0  0  0  0
 11 12  4  0  0  0  0
 12 13  1  0  0  0  0
 13 14  2  0  0  0  0
 14 15  1  0  0  0  0
 15 16  1  0  0  0  0
 16 17  1  0  0  0  0
 17 18  1  0  0  0  0
 18 19  1  0  0  0  0
 15 19  1  0  0  0  0
 19 20  2  0  0  0  0
 12 21  4  0  0  0  0
 21 22  4  0  0  0  0
  9 22  4  0  0  0  0
M  END
>  <ID>
2602

>  <PREFERRED_NAME>
terizidone

>  <CAS_RN>
25683-71-0

>  <SYNONYMS>
terizidone
terivalidin
terizidon

>  <URL>
http://drugcentral.org/drugcard/2602/view

$$$$
