testolactone
  -INDIGO-06102311052D

 22 25  0  0  1  0  0  0  0  0999 V2000
    3.8424   -3.4657    0.0000 C   0  0  0  0  0  0  0  0  0  0  0  0
    4.1124   -2.6861    0.0000 C   0  0  2  0  0  0  0  0  0  0  0  0
    4.6525   -3.3098    0.0000 C   0  0  0  0  0  0  0  0  0  0  0  0
    5.4627   -3.1539    0.0000 C   0  0  0  0  0  0  0  0  0  0  0  0
    5.7327   -2.3743    0.0000 C   0  0  1  0  0  0  0  0  0  0  0  0
    5.1926   -1.7507    0.0000 C   0  0  1  0  0  0  0  0  0  0  0  0
    5.4627   -0.9711    0.0000 C   0  0  0  0  0  0  0  0  0  0  0  0
    6.2728   -0.8152    0.0000 C   0  0  0  0  0  0  0  0  0  0  0  0
    6.8129   -1.4389    0.0000 C   0  0  0  0  0  0  0  0  0  0  0  0
    7.6230   -1.2829    0.0000 C   0  0  0  0  0  0  0  0  0  0  0  0
    8.1631   -1.9066    0.0000 C   0  0  0  0  0  0  0  0  0  0  0  0
    8.9732   -1.7507    0.0000 O   0  0  0  0  0  0  0  0  0  0  0  0
    7.8931   -2.6861    0.0000 C   0  0  0  0  0  0  0  0  0  0  0  0
    7.0829   -2.8421    0.0000 C   0  0  0  0  0  0  0  0  0  0  0  0
    6.5428   -2.2184    0.0000 C   0  0  2  0  0  0  0  0  0  0  0  0
    6.2728   -2.9980    0.0000 C   0  0  0  0  0  0  0  0  0  0  0  0
    4.3825   -1.9066    0.0000 C   0  0  2  0  0  0  0  0  0  0  0  0
    3.8424   -1.2829    0.0000 C   0  0  0  0  0  0  0  0  0  0  0  0
    3.0323   -1.4389    0.0000 C   0  0  0  0  0  0  0  0  0  0  0  0
    2.7622   -2.2184    0.0000 C   0  0  0  0  0  0  0  0  0  0  0  0
    1.9521   -2.3743    0.0000 O   0  0  0  0  0  0  0  0  0  0  0  0
    3.3023   -2.8421    0.0000 O   0  0  0  0  0  0  0  0  0  0  0  0
  2  1  1  1  0  0  0
  2  3  1  0  0  0  0
  3  4  1  0  0  0  0
  5  4  1  1  0  0  0
  5  6  1  0  0  0  0
  6  7  1  6  0  0  0
  7  8  1  0  0  0  0
  8  9  1  0  0  0  0
  9 10  2  0  0  0  0
 10 11  1  0  0  0  0
 11 12  2  0  0  0  0
 11 13  1  0  0  0  0
 13 14  2  0  0  0  0
 14 15  1  0  0  0  0
  5 15  1  0  0  0  0
  9 15  1  0  0  0  0
 15 16  1  1  0  0  0
  6 17  1  0  0  0  0
  2 17  1  0  0  0  0
 17 18  1  1  0  0  0
 18 19  1  0  0  0  0
 19 20  1  0  0  0  0
 20 21  2  0  0  0  0
 20 22  1  0  0  0  0
  2 22  1  0  0  0  0
M  END
>  <ID>
2606

>  <PREFERRED_NAME>
testolactone

>  <CAS_RN>
968-93-4

>  <SYNONYMS>
testolactone
teslac
fludestrin
teolit
testolacton

>  <URL>
http://drugcentral.org/drugcard/2606/view

$$$$
