tetrabarbital
  -INDIGO-06102311102D

 17 17  0  0  0  0  0  0  0  0999 V2000
    0.2481   -3.0572    0.0000 C   0  0  0  0  0  0  0  0  0  0  0  0
    0.9626   -2.6447    0.0000 C   0  0  0  0  0  0  0  0  0  0  0  0
    0.9626   -1.8197    0.0000 C   0  0  0  0  0  0  0  0  0  0  0  0
    1.6771   -1.4072    0.0000 C   0  0  0  0  0  0  0  0  0  0  0  0
    2.3915   -1.8197    0.0000 C   0  0  0  0  0  0  0  0  0  0  0  0
    2.3915   -2.6447    0.0000 C   0  0  0  0  0  0  0  0  0  0  0  0
    1.6771   -0.5822    0.0000 C   0  0  0  0  0  0  0  0  0  0  0  0
    0.8646   -0.7255    0.0000 C   0  0  0  0  0  0  0  0  0  0  0  0
    0.5824   -1.5007    0.0000 C   0  0  0  0  0  0  0  0  0  0  0  0
    1.3949    0.1930    0.0000 C   0  0  0  0  0  0  0  0  0  0  0  0
    0.5824    0.3363    0.0000 O   0  0  0  0  0  0  0  0  0  0  0  0
    1.9252    0.8250    0.0000 N   0  0  0  0  0  0  0  0  0  0  0  0
    2.7377    0.6817    0.0000 C   0  0  0  0  0  0  0  0  0  0  0  0
    3.2680    1.3137    0.0000 O   0  0  0  0  0  0  0  0  0  0  0  0
    3.0198   -0.0935    0.0000 N   0  0  0  0  0  0  0  0  0  0  0  0
    2.4895   -0.7255    0.0000 C   0  0  0  0  0  0  0  0  0  0  0  0
    2.7717   -1.5007    0.0000 O   0  0  0  0  0  0  0  0  0  0  0  0
  1  2  1  0  0  0  0
  2  3  1  0  0  0  0
  3  4  1  0  0  0  0
  4  5  1  0  0  0  0
  5  6  1  0  0  0  0
  4  7  1  0  0  0  0
  7  8  1  0  0  0  0
  8  9  1  0  0  0  0
  7 10  1  0  0  0  0
 10 11  2  0  0  0  0
 10 12  1  0  0  0  0
 12 13  1  0  0  0  0
 13 14  2  0  0  0  0
 13 15  1  0  0  0  0
 15 16  1  0  0  0  0
  7 16  1  0  0  0  0
 16 17  2  0  0  0  0
M  END
>  <ID>
3840

>  <PREFERRED_NAME>
tetrabarbital

>  <CAS_RN>
76-23-3

>  <SYNONYMS>
tetrabarbital
butysal
butysedal

>  <URL>
http://drugcentral.org/drugcard/3840/view

$$$$
