thallous chloride Tl-201
  -INDIGO-06102311182D

  2  1  0  0  0  0  0  0  0  0999 V2000
    0.8250    0.0000    0.0000 Cl  0  0  0  0  0  0  0  0  0  0  0  0
    0.0000    0.0000    0.0000 Tl  0  0  0  0  0  1  0  0  0  0  0  0
  1  2  1  0  0  0  0
M  ISO  1   2 201
M  END
>  <ID>
5095

>  <PREFERRED_NAME>
thallous chloride Tl-201

>  <CAS_RN>
55172-29-7

>  <SYNONYMS>
thallous chloride Tl-201
thallium-201 chloride
thallium-201 monochloride

>  <URL>
http://drugcentral.org/drugcard/5095/view

$$$$
