thiamphenicol
  -INDIGO-06102311062D

 21 21  0  0  1  0  0  0  0  0999 V2000
   -4.8395    0.6336    0.0000 C   0  0  0  0  0  0  0  0  0  0  0  0
   -4.0145    0.6336    0.0000 S   0  0  0  0  0  0  0  0  0  0  0  0
   -4.0145   -0.1914    0.0000 O   0  0  0  0  0  0  0  0  0  0  0  0
   -4.0145    1.4586    0.0000 O   0  0  0  0  0  0  0  0  0  0  0  0
   -3.1895    0.6336    0.0000 C   0  0  0  0  0  0  0  0  0  0  0  0
   -2.7770    1.3480    0.0000 C   0  0  0  0  0  0  0  0  0  0  0  0
   -1.9520    1.3480    0.0000 C   0  0  0  0  0  0  0  0  0  0  0  0
   -1.5395    0.6336    0.0000 C   0  0  0  0  0  0  0  0  0  0  0  0
   -1.9520   -0.0809    0.0000 C   0  0  0  0  0  0  0  0  0  0  0  0
   -2.7770   -0.0809    0.0000 C   0  0  0  0  0  0  0  0  0  0  0  0
   -0.7145    0.6336    0.0000 C   0  0  1  0  0  0  0  0  0  0  0  0
   -0.3020   -0.0809    0.0000 O   0  0  0  0  0  0  0  0  0  0  0  0
   -0.3020    1.3480    0.0000 C   0  0  1  0  0  0  0  0  0  0  0  0
   -0.7145    2.0625    0.0000 C   0  0  0  0  0  0  0  0  0  0  0  0
   -0.3020    2.7770    0.0000 O   0  0  0  0  0  0  0  0  0  0  0  0
    0.5230    1.3480    0.0000 N   0  0  0  0  0  0  0  0  0  0  0  0
    0.9355    2.0625    0.0000 C   0  0  0  0  0  0  0  0  0  0  0  0
    0.5230    2.7770    0.0000 O   0  0  0  0  0  0  0  0  0  0  0  0
    1.7605    2.0625    0.0000 C   0  0  0  0  0  0  0  0  0  0  0  0
    2.1730    2.7770    0.0000 Cl  0  0  0  0  0  0  0  0  0  0  0  0
    2.1730    1.3480    0.0000 Cl  0  0  0  0  0  0  0  0  0  0  0  0
  1  2  1  0  0  0  0
  2  3  2  0  0  0  0
  2  4  2  0  0  0  0
  2  5  1  0  0  0  0
  5  6  4  0  0  0  0
  6  7  4  0  0  0  0
  7  8  4  0  0  0  0
  8  9  4  0  0  0  0
  9 10  4  0  0  0  0
  5 10  4  0  0  0  0
  8 11  1  0  0  0  0
 11 12  1  6  0  0  0
 11 13  1  0  0  0  0
 13 14  1  0  0  0  0
 14 15  1  0  0  0  0
 13 16  1  1  0  0  0
 16 17  1  0  0  0  0
 17 18  2  0  0  0  0
 17 19  1  0  0  0  0
 19 20  1  0  0  0  0
 19 21  1  0  0  0  0
M  END
>  <ID>
2624

>  <PREFERRED_NAME>
thiamphenicol

>  <CAS_RN>
15318-45-3

>  <SYNONYMS>
thiamphenicol
thiocymetin
thiophenicol

>  <URL>
http://drugcentral.org/drugcard/2624/view

$$$$
