thymalfasin
  -INDIGO-06102311062D

217216  0  0  1  0  0  0  0  0999 V2000
   73.4091   32.4828    0.0000 C   0  0  0  0  0  0  0  0  0  0  0  0
   73.4091   31.6578    0.0000 C   0  0  0  0  0  0  0  0  0  0  0  0
   74.1236   31.2453    0.0000 C   0  0  2  0  0  0  0  0  0  0  0  0
   74.8381   31.6578    0.0000 C   0  0  0  0  0  0  0  0  0  0  0  0
   74.1236   30.4203    0.0000 C   0  0  2  0  0  0  0  0  0  0  0  0
   73.4091   30.0078    0.0000 N   0  0  0  0  0  0  0  0  0  0  0  0
   72.6947   30.4203    0.0000 C   0  0  0  0  0  0  0  0  0  0  0  0
   72.6947   31.2453    0.0000 O   0  0  0  0  0  0  0  0  0  0  0  0
   71.9802   30.0078    0.0000 C   0  0  2  0  0  0  0  0  0  0  0  0
   71.9802   29.1828    0.0000 C   0  0  0  0  0  0  0  0  0  0  0  0
   71.2657   28.7703    0.0000 C   0  0  0  0  0  0  0  0  0  0  0  0
   71.2657   27.9453    0.0000 C   0  0  0  0  0  0  0  0  0  0  0  0
   71.9802   27.5328    0.0000 O   0  0  0  0  0  0  0  0  0  0  0  0
   70.5512   27.5328    0.0000 O   0  0  0  0  0  0  0  0  0  0  0  0
   71.2657   30.4203    0.0000 N   0  0  0  0  0  0  0  0  0  0  0  0
   70.5512   30.0078    0.0000 C   0  0  0  0  0  0  0  0  0  0  0  0
   70.5512   29.1828    0.0000 O   0  0  0  0  0  0  0  0  0  0  0  0
   69.8368   30.4203    0.0000 C   0  0  2  0  0  0  0  0  0  0  0  0
   69.8368   31.2453    0.0000 C   0  0  0  0  0  0  0  0  0  0  0  0
   69.1223   31.6578    0.0000 O   0  0  0  0  0  0  0  0  0  0  0  0
   69.1223   30.0078    0.0000 N   0  0  0  0  0  0  0  0  0  0  0  0
   68.4078   30.4203    0.0000 C   0  0  0  0  0  0  0  0  0  0  0  0
   68.4078   31.2453    0.0000 O   0  0  0  0  0  0  0  0  0  0  0  0
   67.6934   30.0078    0.0000 C   0  0  2  0  0  0  0  0  0  0  0  0
   67.6934   29.1828    0.0000 C   0  0  0  0  0  0  0  0  0  0  0  0
   66.9789   28.7703    0.0000 O   0  0  0  0  0  0  0  0  0  0  0  0
   66.9789   30.4203    0.0000 N   0  0  0  0  0  0  0  0  0  0  0  0
   66.2644   30.0078    0.0000 C   0  0  0  0  0  0  0  0  0  0  0  0
   66.2644   29.1828    0.0000 O   0  0  0  0  0  0  0  0  0  0  0  0
   65.5499   30.4203    0.0000 C   0  0  1  0  0  0  0  0  0  0  0  0
   64.8355   30.0078    0.0000 N   0  0  0  0  0  0  0  0  0  0  0  0
   64.1210   30.4203    0.0000 C   0  0  0  0  0  0  0  0  0  0  0  0
   64.1210   31.2453    0.0000 O   0  0  0  0  0  0  0  0  0  0  0  0
   63.4065   30.0078    0.0000 C   0  0  2  0  0  0  0  0  0  0  0  0
   63.4065   29.1828    0.0000 C   0  0  0  0  0  0  0  0  0  0  0  0
   64.1210   28.7703    0.0000 C   0  0  0  0  0  0  0  0  0  0  0  0
   64.8355   29.1828    0.0000 O   0  0  0  0  0  0  0  0  0  0  0  0
   64.1210   27.9453    0.0000 O   0  0  0  0  0  0  0  0  0  0  0  0
   62.6921   30.4203    0.0000 N   0  0  0  0  0  0  0  0  0  0  0  0
   61.9776   30.0078    0.0000 C   0  0  0  0  0  0  0  0  0  0  0  0
   61.9776   29.1828    0.0000 O   0  0  0  0  0  0  0  0  0  0  0  0
   61.2631   30.4203    0.0000 C   0  0  1  0  0  0  0  0  0  0  0  0
   60.5487   30.0078    0.0000 N   0  0  0  0  0  0  0  0  0  0  0  0
   59.8342   30.4203    0.0000 C   0  0  0  0  0  0  0  0  0  0  0  0
   59.8342   31.2453    0.0000 O   0  0  0  0  0  0  0  0  0  0  0  0
   59.1197   30.0078    0.0000 C   0  0  2  0  0  0  0  0  0  0  0  0
   59.1197   29.1828    0.0000 C   0  0  0  0  0  0  0  0  0  0  0  0
   58.4052   30.4203    0.0000 N   0  0  0  0  0  0  0  0  0  0  0  0
   57.6908   30.0078    0.0000 C   0  0  0  0  0  0  0  0  0  0  0  0
   57.6908   29.1828    0.0000 O   0  0  0  0  0  0  0  0  0  0  0  0
   56.9763   30.4203    0.0000 C   0  0  2  0  0  0  0  0  0  0  0  0
   56.9763   31.2453    0.0000 C   0  0  0  0  0  0  0  0  0  0  0  0
   56.2618   30.0078    0.0000 N   0  0  0  0  0  0  0  0  0  0  0  0
   55.5474   30.4203    0.0000 C   0  0  0  0  0  0  0  0  0  0  0  0
   55.5474   31.2453    0.0000 O   0  0  0  0  0  0  0  0  0  0  0  0
   54.8329   30.0078    0.0000 C   0  0  2  0  0  0  0  0  0  0  0  0
   54.8329   29.1828    0.0000 C   0  0  0  0  0  0  0  0  0  0  0  0
   55.5474   28.7703    0.0000 C   0  0  0  0  0  0  0  0  0  0  0  0
   56.2618   29.1828    0.0000 O   0  0  0  0  0  0  0  0  0  0  0  0
   55.5474   27.9453    0.0000 O   0  0  0  0  0  0  0  0  0  0  0  0
   54.1184   30.4203    0.0000 N   0  0  0  0  0  0  0  0  0  0  0  0
   53.4039   30.0078    0.0000 C   0  0  0  0  0  0  0  0  0  0  0  0
   53.4039   29.1828    0.0000 O   0  0  0  0  0  0  0  0  0  0  0  0
   52.6895   30.4203    0.0000 C   0  0  2  0  0  0  0  0  0  0  0  0
   52.6895   31.2453    0.0000 C   0  0  0  0  0  0  0  0  0  0  0  0
   51.9750   31.6578    0.0000 O   0  0  0  0  0  0  0  0  0  0  0  0
   51.9750   30.0078    0.0000 N   0  0  0  0  0  0  0  0  0  0  0  0
   51.2605   30.4203    0.0000 C   0  0  0  0  0  0  0  0  0  0  0  0
   50.5461   30.0078    0.0000 C   0  0  0  0  0  0  0  0  0  0  0  0
   51.2605   31.2453    0.0000 O   0  0  0  0  0  0  0  0  0  0  0  0
   61.2631   31.2453    0.0000 C   0  0  0  0  0  0  0  0  0  0  0  0
   60.5487   31.6578    0.0000 C   0  0  0  0  0  0  0  0  0  0  0  0
   61.9776   31.6578    0.0000 C   0  0  0  0  0  0  0  0  0  0  0  0
   65.5499   31.2453    0.0000 C   0  0  1  0  0  0  0  0  0  0  0  0
   64.8355   31.6578    0.0000 C   0  0  0  0  0  0  0  0  0  0  0  0
   66.2644   31.6578    0.0000 O   0  0  0  0  0  0  0  0  0  0  0  0
   74.8381   30.0078    0.0000 C   0  0  0  0  0  0  0  0  0  0  0  0
   74.8381   29.1828    0.0000 O   0  0  0  0  0  0  0  0  0  0  0  0
   75.5525   30.4203    0.0000 N   0  0  0  0  0  0  0  0  0  0  0  0
   76.2670   30.0078    0.0000 C   0  0  1  0  0  0  0  0  0  0  0  0
   76.2670   29.1828    0.0000 C   0  0  1  0  0  0  0  0  0  0  0  0
   76.9815   28.7703    0.0000 C   0  0  0  0  0  0  0  0  0  0  0  0
   75.5525   28.7703    0.0000 O   0  0  0  0  0  0  0  0  0  0  0  0
   76.9815   30.4203    0.0000 C   0  0  0  0  0  0  0  0  0  0  0  0
   76.9815   31.2453    0.0000 O   0  0  0  0  0  0  0  0  0  0  0  0
   77.6960   30.0078    0.0000 N   0  0  0  0  0  0  0  0  0  0  0  0
   78.4104   30.4203    0.0000 C   0  0  1  0  0  0  0  0  0  0  0  0
   78.4104   31.2453    0.0000 C   0  0  1  0  0  0  0  0  0  0  0  0
   77.6960   31.6578    0.0000 C   0  0  0  0  0  0  0  0  0  0  0  0
   79.1249   31.6578    0.0000 O   0  0  0  0  0  0  0  0  0  0  0  0
   79.1249   30.0078    0.0000 C   0  0  0  0  0  0  0  0  0  0  0  0
   79.1249   29.1828    0.0000 O   0  0  0  0  0  0  0  0  0  0  0  0
   79.8394   30.4203    0.0000 N   0  0  0  0  0  0  0  0  0  0  0  0
   80.5538   30.0078    0.0000 C   0  0  1  0  0  0  0  0  0  0  0  0
   80.5538   29.1828    0.0000 C   0  0  0  0  0  0  0  0  0  0  0  0
   81.2683   28.7703    0.0000 C   0  0  0  0  0  0  0  0  0  0  0  0
   81.2683   27.9453    0.0000 C   0  0  0  0  0  0  0  0  0  0  0  0
   81.9828   27.5328    0.0000 C   0  0  0  0  0  0  0  0  0  0  0  0
   81.9828   26.7078    0.0000 N   0  0  0  0  0  0  0  0  0  0  0  0
   81.2683   30.4203    0.0000 C   0  0  0  0  0  0  0  0  0  0  0  0
   81.2683   31.2453    0.0000 O   0  0  0  0  0  0  0  0  0  0  0  0
   81.9828   30.0078    0.0000 N   0  0  0  0  0  0  0  0  0  0  0  0
   82.6973   30.4203    0.0000 C   0  0  1  0  0  0  0  0  0  0  0  0
   82.6973   31.2453    0.0000 C   0  0  0  0  0  0  0  0  0  0  0  0
   83.4117   31.6578    0.0000 C   0  0  0  0  0  0  0  0  0  0  0  0
   83.4117   32.4828    0.0000 O   0  0  0  0  0  0  0  0  0  0  0  0
   84.1262   31.2453    0.0000 O   0  0  0  0  0  0  0  0  0  0  0  0
   83.4117   30.0078    0.0000 C   0  0  0  0  0  0  0  0  0  0  0  0
   83.4117   29.1828    0.0000 O   0  0  0  0  0  0  0  0  0  0  0  0
   84.1262   30.4203    0.0000 N   0  0  0  0  0  0  0  0  0  0  0  0
   84.8407   30.0078    0.0000 C   0  0  1  0  0  0  0  0  0  0  0  0
   84.8407   29.1828    0.0000 C   0  0  0  0  0  0  0  0  0  0  0  0
   85.5551   28.7703    0.0000 C   0  0  0  0  0  0  0  0  0  0  0  0
   86.2696   29.1828    0.0000 C   0  0  0  0  0  0  0  0  0  0  0  0
   85.5551   27.9453    0.0000 C   0  0  0  0  0  0  0  0  0  0  0  0
   85.5551   30.4203    0.0000 C   0  0  0  0  0  0  0  0  0  0  0  0
   85.5551   31.2453    0.0000 O   0  0  0  0  0  0  0  0  0  0  0  0
   86.2696   30.0078    0.0000 N   0  0  0  0  0  0  0  0  0  0  0  0
   86.9841   30.4203    0.0000 C   0  0  1  0  0  0  0  0  0  0  0  0
   86.9841   31.2453    0.0000 C   0  0  0  0  0  0  0  0  0  0  0  0
   86.2696   31.6578    0.0000 C   0  0  0  0  0  0  0  0  0  0  0  0
   86.2696   32.4828    0.0000 C   0  0  0  0  0  0  0  0  0  0  0  0
   85.5551   32.8953    0.0000 C   0  0  0  0  0  0  0  0  0  0  0  0
   85.5551   33.7203    0.0000 N   0  0  0  0  0  0  0  0  0  0  0  0
   87.6985   30.0078    0.0000 C   0  0  0  0  0  0  0  0  0  0  0  0
   87.6985   29.1828    0.0000 O   0  0  0  0  0  0  0  0  0  0  0  0
   88.4130   30.4203    0.0000 N   0  0  0  0  0  0  0  0  0  0  0  0
   89.1275   30.0078    0.0000 C   0  0  1  0  0  0  0  0  0  0  0  0
   89.1275   29.1828    0.0000 C   0  0  0  0  0  0  0  0  0  0  0  0
   89.8420   28.7703    0.0000 C   0  0  0  0  0  0  0  0  0  0  0  0
   89.8420   27.9453    0.0000 C   0  0  0  0  0  0  0  0  0  0  0  0
   89.1275   27.5328    0.0000 O   0  0  0  0  0  0  0  0  0  0  0  0
   90.5564   27.5328    0.0000 O   0  0  0  0  0  0  0  0  0  0  0  0
   89.8420   30.4203    0.0000 C   0  0  0  0  0  0  0  0  0  0  0  0
   89.8420   31.2453    0.0000 O   0  0  0  0  0  0  0  0  0  0  0  0
   90.5564   30.0078    0.0000 N   0  0  0  0  0  0  0  0  0  0  0  0
   91.2709   30.4203    0.0000 C   0  0  1  0  0  0  0  0  0  0  0  0
   91.2709   31.2453    0.0000 C   0  0  0  0  0  0  0  0  0  0  0  0
   90.5564   31.6578    0.0000 C   0  0  0  0  0  0  0  0  0  0  0  0
   90.5564   32.4828    0.0000 C   0  0  0  0  0  0  0  0  0  0  0  0
   89.8420   32.8953    0.0000 C   0  0  0  0  0  0  0  0  0  0  0  0
   89.8420   33.7203    0.0000 N   0  0  0  0  0  0  0  0  0  0  0  0
   91.9854   30.0078    0.0000 C   0  0  0  0  0  0  0  0  0  0  0  0
   91.9854   29.1828    0.0000 O   0  0  0  0  0  0  0  0  0  0  0  0
   92.6998   30.4203    0.0000 N   0  0  0  0  0  0  0  0  0  0  0  0
   93.4143   30.0078    0.0000 C   0  0  1  0  0  0  0  0  0  0  0  0
   93.4143   29.1828    0.0000 C   0  0  0  0  0  0  0  0  0  0  0  0
   94.1288   28.7703    0.0000 C   0  0  0  0  0  0  0  0  0  0  0  0
   94.1288   27.9453    0.0000 C   0  0  0  0  0  0  0  0  0  0  0  0
   94.8433   27.5328    0.0000 C   0  0  0  0  0  0  0  0  0  0  0  0
   94.8433   26.7078    0.0000 N   0  0  0  0  0  0  0  0  0  0  0  0
   94.1288   30.4203    0.0000 C   0  0  0  0  0  0  0  0  0  0  0  0
   94.1288   31.2453    0.0000 O   0  0  0  0  0  0  0  0  0  0  0  0
   94.8433   30.0078    0.0000 N   0  0  0  0  0  0  0  0  0  0  0  0
   95.5577   30.4203    0.0000 C   0  0  1  0  0  0  0  0  0  0  0  0
   95.5577   31.2453    0.0000 C   0  0  0  0  0  0  0  0  0  0  0  0
   96.2722   31.6578    0.0000 C   0  0  0  0  0  0  0  0  0  0  0  0
   96.2722   32.4828    0.0000 C   0  0  0  0  0  0  0  0  0  0  0  0
   95.5577   32.8953    0.0000 O   0  0  0  0  0  0  0  0  0  0  0  0
   96.9867   32.8953    0.0000 O   0  0  0  0  0  0  0  0  0  0  0  0
   96.2722   30.0078    0.0000 C   0  0  0  0  0  0  0  0  0  0  0  0
   96.2722   29.1828    0.0000 O   0  0  0  0  0  0  0  0  0  0  0  0
   96.9867   30.4203    0.0000 N   0  0  0  0  0  0  0  0  0  0  0  0
   97.7011   30.0078    0.0000 C   0  0  1  0  0  0  0  0  0  0  0  0
   97.7011   29.1828    0.0000 C   0  0  0  0  0  0  0  0  0  0  0  0
   98.4156   28.7703    0.0000 C   0  0  0  0  0  0  0  0  0  0  0  0
   96.9867   28.7703    0.0000 C   0  0  0  0  0  0  0  0  0  0  0  0
   98.4156   30.4203    0.0000 C   0  0  0  0  0  0  0  0  0  0  0  0
   98.4156   31.2453    0.0000 O   0  0  0  0  0  0  0  0  0  0  0  0
   99.1301   30.0078    0.0000 N   0  0  0  0  0  0  0  0  0  0  0  0
   99.8446   30.4203    0.0000 C   0  0  1  0  0  0  0  0  0  0  0  0
   99.8446   31.2453    0.0000 C   0  0  0  0  0  0  0  0  0  0  0  0
  100.5590   31.6578    0.0000 C   0  0  0  0  0  0  0  0  0  0  0  0
   99.1301   31.6578    0.0000 C   0  0  0  0  0  0  0  0  0  0  0  0
  100.5590   30.0078    0.0000 C   0  0  0  0  0  0  0  0  0  0  0  0
  100.5590   29.1828    0.0000 O   0  0  0  0  0  0  0  0  0  0  0  0
  101.2735   30.4203    0.0000 N   0  0  0  0  0  0  0  0  0  0  0  0
  101.9880   30.0078    0.0000 C   0  0  1  0  0  0  0  0  0  0  0  0
  101.9880   29.1828    0.0000 C   0  0  0  0  0  0  0  0  0  0  0  0
  102.7024   28.7703    0.0000 C   0  0  0  0  0  0  0  0  0  0  0  0
  102.7024   27.9453    0.0000 C   0  0  0  0  0  0  0  0  0  0  0  0
  101.9880   27.5328    0.0000 O   0  0  0  0  0  0  0  0  0  0  0  0
  103.4169   27.5328    0.0000 O   0  0  0  0  0  0  0  0  0  0  0  0
  102.7024   30.4203    0.0000 C   0  0  0  0  0  0  0  0  0  0  0  0
  102.7024   31.2453    0.0000 O   0  0  0  0  0  0  0  0  0  0  0  0
  103.4169   30.0078    0.0000 N   0  0  0  0  0  0  0  0  0  0  0  0
  104.1314   30.4203    0.0000 C   0  0  1  0  0  0  0  0  0  0  0  0
  104.1314   31.2453    0.0000 C   0  0  0  0  0  0  0  0  0  0  0  0
  104.8459   31.6578    0.0000 C   0  0  0  0  0  0  0  0  0  0  0  0
  104.8459   32.4828    0.0000 C   0  0  0  0  0  0  0  0  0  0  0  0
  104.1314   32.8953    0.0000 O   0  0  0  0  0  0  0  0  0  0  0  0
  105.5603   32.8953    0.0000 O   0  0  0  0  0  0  0  0  0  0  0  0
  104.8459   30.0078    0.0000 C   0  0  0  0  0  0  0  0  0  0  0  0
  104.8459   29.1828    0.0000 O   0  0  0  0  0  0  0  0  0  0  0  0
  105.5603   30.4203    0.0000 N   0  0  0  0  0  0  0  0  0  0  0  0
  106.2748   30.0078    0.0000 C   0  0  1  0  0  0  0  0  0  0  0  0
  106.2748   29.1828    0.0000 C   0  0  0  0  0  0  0  0  0  0  0  0
  106.9893   30.4203    0.0000 C   0  0  0  0  0  0  0  0  0  0  0  0
  106.9893   31.2453    0.0000 O   0  0  0  0  0  0  0  0  0  0  0  0
  107.7037   30.0078    0.0000 N   0  0  0  0  0  0  0  0  0  0  0  0
  108.4182   30.4203    0.0000 C   0  0  1  0  0  0  0  0  0  0  0  0
  108.4182   31.2453    0.0000 C   0  0  0  0  0  0  0  0  0  0  0  0
  109.1327   31.6578    0.0000 C   0  0  0  0  0  0  0  0  0  0  0  0
  109.1327   32.4828    0.0000 C   0  0  0  0  0  0  0  0  0  0  0  0
  108.4182   32.8953    0.0000 O   0  0  0  0  0  0  0  0  0  0  0  0
  109.8471   32.8953    0.0000 O   0  0  0  0  0  0  0  0  0  0  0  0
  109.1327   30.0078    0.0000 C   0  0  0  0  0  0  0  0  0  0  0  0
  109.1327   29.1828    0.0000 O   0  0  0  0  0  0  0  0  0  0  0  0
  109.8471   30.4203    0.0000 N   0  0  0  0  0  0  0  0  0  0  0  0
  110.5616   30.0078    0.0000 C   0  0  1  0  0  0  0  0  0  0  0  0
  111.2761   30.4203    0.0000 C   0  0  0  0  0  0  0  0  0  0  0  0
  111.9906   30.0078    0.0000 C   0  0  0  0  0  0  0  0  0  0  0  0
  112.7050   30.4203    0.0000 N   0  0  0  0  0  0  0  0  0  0  0  0
  111.9906   29.1828    0.0000 O   0  0  0  0  0  0  0  0  0  0  0  0
  110.5616   29.1828    0.0000 C   0  0  0  0  0  0  0  0  0  0  0  0
  111.2761   28.7703    0.0000 O   0  0  0  0  0  0  0  0  0  0  0  0
  109.8471   28.7703    0.0000 O   0  0  0  0  0  0  0  0  0  0  0  0
  1  2  1  0  0  0  0
  2  3  1  0  0  0  0
  3  4  1  6  0  0  0
  3  5  1  0  0  0  0
  5  6  1  1  0  0  0
  6  7  1  0  0  0  0
  7  8  2  0  0  0  0
  7  9  1  0  0  0  0
  9 10  1  0  0  0  0
 10 11  1  0  0  0  0
 11 12  1  0  0  0  0
 12 13  1  0  0  0  0
 12 14  2  0  0  0  0
  9 15  1  6  0  0  0
 15 16  1  0  0  0  0
 16 17  2  0  0  0  0
 16 18  1  0  0  0  0
 18 19  1  0  0  0  0
 19 20  1  0  0  0  0
 18 21  1  1  0  0  0
 21 22  1  0  0  0  0
 22 23  2  0  0  0  0
 22 24  1  0  0  0  0
 24 25  1  0  0  0  0
 25 26  1  0  0  0  0
 24 27  1  6  0  0  0
 27 28  1  0  0  0  0
 28 29  2  0  0  0  0
 28 30  1  0  0  0  0
 30 31  1  1  0  0  0
 31 32  1  0  0  0  0
 32 33  2  0  0  0  0
 32 34  1  0  0  0  0
 34 35  1  0  0  0  0
 35 36  1  0  0  0  0
 36 37  1  0  0  0  0
 36 38  2  0  0  0  0
 34 39  1  6  0  0  0
 39 40  1  0  0  0  0
 40 41  2  0  0  0  0
 40 42  1  0  0  0  0
 42 43  1  1  0  0  0
 43 44  1  0  0  0  0
 44 45  2  0  0  0  0
 44 46  1  0  0  0  0
 46 47  1  6  0  0  0
 46 48  1  0  0  0  0
 48 49  1  0  0  0  0
 49 50  2  0  0  0  0
 49 51  1  0  0  0  0
 51 52  1  1  0  0  0
 51 53  1  0  0  0  0
 53 54  1  0  0  0  0
 54 55  2  0  0  0  0
 54 56  1  0  0  0  0
 56 57  1  0  0  0  0
 57 58  1  0  0  0  0
 58 59  1  0  0  0  0
 58 60  2  0  0  0  0
 56 61  1  6  0  0  0
 61 62  1  0  0  0  0
 62 63  2  0  0  0  0
 62 64  1  0  0  0  0
 64 65  1  0  0  0  0
 65 66  1  0  0  0  0
 64 67  1  1  0  0  0
 67 68  1  0  0  0  0
 68 69  1  0  0  0  0
 68 70  2  0  0  0  0
 42 71  1  0  0  0  0
 71 72  1  0  0  0  0
 71 73  1  0  0  0  0
 30 74  1  0  0  0  0
 74 75  1  0  0  0  0
 74 76  1  1  0  0  0
  5 77  1  0  0  0  0
 77 78  2  0  0  0  0
 77 79  1  0  0  0  0
 80 79  1  6  0  0  0
 80 81  1  0  0  0  0
 81 82  1  0  0  0  0
 81 83  1  1  0  0  0
 80 84  1  0  0  0  0
 84 85  2  0  0  0  0
 84 86  1  0  0  0  0
 87 86  1  1  0  0  0
 87 88  1  0  0  0  0
 88 89  1  0  0  0  0
 88 90  1  1  0  0  0
 87 91  1  0  0  0  0
 91 92  2  0  0  0  0
 91 93  1  0  0  0  0
 94 93  1  6  0  0  0
 94 95  1  0  0  0  0
 95 96  1  0  0  0  0
 96 97  1  0  0  0  0
 97 98  1  0  0  0  0
 98 99  1  0  0  0  0
 94100  1  0  0  0  0
100101  2  0  0  0  0
100102  1  0  0  0  0
103102  1  1  0  0  0
103104  1  0  0  0  0
104105  1  0  0  0  0
105106  1  0  0  0  0
105107  2  0  0  0  0
103108  1  0  0  0  0
108109  2  0  0  0  0
108110  1  0  0  0  0
111110  1  6  0  0  0
111112  1  0  0  0  0
112113  1  0  0  0  0
113114  1  0  0  0  0
113115  1  0  0  0  0
111116  1  0  0  0  0
116117  2  0  0  0  0
116118  1  0  0  0  0
119118  1  1  0  0  0
119120  1  0  0  0  0
120121  1  0  0  0  0
121122  1  0  0  0  0
122123  1  0  0  0  0
123124  1  0  0  0  0
119125  1  0  0  0  0
125126  2  0  0  0  0
125127  1  0  0  0  0
128127  1  6  0  0  0
128129  1  0  0  0  0
129130  1  0  0  0  0
130131  1  0  0  0  0
131132  1  0  0  0  0
131133  2  0  0  0  0
128134  1  0  0  0  0
134135  2  0  0  0  0
134136  1  0  0  0  0
137136  1  1  0  0  0
137138  1  0  0  0  0
138139  1  0  0  0  0
139140  1  0  0  0  0
140141  1  0  0  0  0
141142  1  0  0  0  0
137143  1  0  0  0  0
143144  2  0  0  0  0
143145  1  0  0  0  0
146145  1  6  0  0  0
146147  1  0  0  0  0
147148  1  0  0  0  0
148149  1  0  0  0  0
149150  1  0  0  0  0
150151  1  0  0  0  0
146152  1  0  0  0  0
152153  2  0  0  0  0
152154  1  0  0  0  0
155154  1  1  0  0  0
155156  1  0  0  0  0
156157  1  0  0  0  0
157158  1  0  0  0  0
158159  1  0  0  0  0
158160  2  0  0  0  0
155161  1  0  0  0  0
161162  2  0  0  0  0
161163  1  0  0  0  0
164163  1  6  0  0  0
164165  1  0  0  0  0
165166  1  0  0  0  0
165167  1  0  0  0  0
164168  1  0  0  0  0
168169  2  0  0  0  0
168170  1  0  0  0  0
171170  1  1  0  0  0
171172  1  0  0  0  0
172173  1  0  0  0  0
172174  1  0  0  0  0
171175  1  0  0  0  0
175176  2  0  0  0  0
175177  1  0  0  0  0
178177  1  6  0  0  0
178179  1  0  0  0  0
179180  1  0  0  0  0
180181  1  0  0  0  0
181182  1  0  0  0  0
181183  2  0  0  0  0
178184  1  0  0  0  0
184185  2  0  0  0  0
184186  1  0  0  0  0
187186  1  1  0  0  0
187188  1  0  0  0  0
188189  1  0  0  0  0
189190  1  0  0  0  0
190191  1  0  0  0  0
190192  2  0  0  0  0
187193  1  0  0  0  0
193194  2  0  0  0  0
193195  1  0  0  0  0
195196  1  0  0  0  0
196197  1  6  0  0  0
196198  1  0  0  0  0
198199  2  0  0  0  0
198200  1  0  0  0  0
201200  1  1  0  0  0
201202  1  0  0  0  0
202203  1  0  0  0  0
203204  1  0  0  0  0
204205  1  0  0  0  0
204206  2  0  0  0  0
201207  1  0  0  0  0
207208  2  0  0  0  0
207209  1  0  0  0  0
210209  1  1  0  0  0
210211  1  0  0  0  0
211212  1  0  0  0  0
212213  1  0  0  0  0
212214  2  0  0  0  0
210215  1  0  0  0  0
215216  1  0  0  0  0
215217  2  0  0  0  0
M  END
>  <ID>
2643

>  <PREFERRED_NAME>
thymalfasin

>  <CAS_RN>
62304-98-7

>  <SYNONYMS>
thymalfasin
Thymosin alpha1
zadaxin

>  <URL>
http://drugcentral.org/drugcard/2643/view

$$$$
