tiagabine
  -INDIGO-06102311062D

 25 27  0  0  1  0  0  0  0  0999 V2000
   -0.7145   -2.8875    0.0000 C   0  0  0  0  0  0  0  0  0  0  0  0
   -0.7145   -3.7125    0.0000 C   0  0  0  0  0  0  0  0  0  0  0  0
   -1.3819   -4.1974    0.0000 C   0  0  0  0  0  0  0  0  0  0  0  0
   -1.1270   -4.9820    0.0000 S   0  0  0  0  0  0  0  0  0  0  0  0
   -0.3020   -4.9820    0.0000 C   0  0  0  0  0  0  0  0  0  0  0  0
   -0.0470   -4.1974    0.0000 C   0  0  0  0  0  0  0  0  0  0  0  0
   -2.1665   -3.9425    0.0000 C   0  0  0  0  0  0  0  0  0  0  0  0
   -2.3381   -3.1355    0.0000 C   0  0  0  0  0  0  0  0  0  0  0  0
   -3.1227   -2.8806    0.0000 C   0  0  0  0  0  0  0  0  0  0  0  0
   -3.2942   -2.0736    0.0000 C   0  0  0  0  0  0  0  0  0  0  0  0
   -4.0788   -1.8187    0.0000 N   0  0  0  0  0  0  0  0  0  0  0  0
   -4.6919   -2.3707    0.0000 C   0  0  0  0  0  0  0  0  0  0  0  0
   -5.4765   -2.1158    0.0000 C   0  0  0  0  0  0  0  0  0  0  0  0
   -5.6481   -1.3088    0.0000 C   0  0  0  0  0  0  0  0  0  0  0  0
   -5.0350   -0.7568    0.0000 C   0  0  2  0  0  0  0  0  0  0  0  0
   -4.2504   -1.0117    0.0000 C   0  0  0  0  0  0  0  0  0  0  0  0
   -5.2065    0.0502    0.0000 C   0  0  0  0  0  0  0  0  0  0  0  0
   -5.9911    0.3052    0.0000 O   0  0  0  0  0  0  0  0  0  0  0  0
   -4.5934    0.6023    0.0000 O   0  0  0  0  0  0  0  0  0  0  0  0
   -2.7796   -4.4945    0.0000 C   0  0  0  0  0  0  0  0  0  0  0  0
   -2.6934   -5.3150    0.0000 C   0  0  0  0  0  0  0  0  0  0  0  0
   -1.9789   -5.7275    0.0000 C   0  0  0  0  0  0  0  0  0  0  0  0
   -3.4471   -5.6506    0.0000 C   0  0  0  0  0  0  0  0  0  0  0  0
   -3.9991   -5.0375    0.0000 C   0  0  0  0  0  0  0  0  0  0  0  0
   -3.5866   -4.3230    0.0000 S   0  0  0  0  0  0  0  0  0  0  0  0
  1  2  1  0  0  0  0
  2  3  4  0  0  0  0
  3  4  4  0  0  0  0
  4  5  4  0  0  0  0
  5  6  4  0  0  0  0
  2  6  4  0  0  0  0
  3  7  1  0  0  0  0
  7  8  2  0  0  0  0
  8  9  1  0  0  0  0
  9 10  1  0  0  0  0
 10 11  1  0  0  0  0
 11 12  1  0  0  0  0
 12 13  1  0  0  0  0
 13 14  1  0  0  0  0
 14 15  1  0  0  0  0
 15 16  1  0  0  0  0
 11 16  1  0  0  0  0
 15 17  1  1  0  0  0
 17 18  1  0  0  0  0
 17 19  2  0  0  0  0
  7 20  1  0  0  0  0
 20 21  4  0  0  0  0
 21 22  1  0  0  0  0
 21 23  4  0  0  0  0
 23 24  4  0  0  0  0
 24 25  4  0  0  0  0
 20 25  4  0  0  0  0
M  END
>  <ID>
2648

>  <PREFERRED_NAME>
tiagabine

>  <CAS_RN>
115103-54-3

>  <SYNONYMS>
tiagabine
(R)-Tiagabine
gabatril
tiagabine hydrochloride
tiagabine HCl

>  <URL>
http://drugcentral.org/drugcard/2648/view

$$$$
