tiamulin
  -INDIGO-06102311242D

 35 37  0  0  1  0  0  0  0  0999 V2000
    1.5179   -0.3073    0.0000 H   0  0  0  0  0  0  0  0  0  0  0  0
    1.8659   -1.0553    0.0000 C   0  0  2  0  0  0  0  0  0  0  0  0
    2.4681   -1.6192    0.0000 C   0  0  0  0  0  0  0  0  0  0  0  0
    3.4236   -1.3576    0.0000 O   0  0  0  0  0  0  0  0  0  0  0  0
    2.1179   -2.3662    0.0000 C   0  0  0  0  0  0  0  0  0  0  0  0
    1.2993   -2.2640    0.0000 C   0  0  0  0  0  0  0  0  0  0  0  0
    1.1435   -1.4539    0.0000 C   0  0  2  0  0  0  0  0  0  0  0  0
    1.6093   -2.2045    0.0000 C   0  0  0  0  0  0  0  0  0  0  0  0
    2.4572   -2.3265    0.0000 C   0  0  0  0  0  0  0  0  0  0  0  0
    2.9101   -1.5993    0.0000 C   0  0  1  0  0  0  0  0  0  0  0  0
    3.5916   -2.2100    0.0000 C   0  0  0  0  0  0  0  0  0  0  0  0
    2.5673   -0.7859    0.0000 C   0  0  2  0  0  0  0  0  0  0  0  0
    3.3017   -0.3660    0.0000 C   0  0  0  0  0  0  0  0  0  0  0  0
    2.4960    0.0887    0.0000 C   0  0  1  0  0  0  0  0  0  0  0  0
    1.8933    0.7035    0.0000 C   0  0  0  0  0  0  0  0  0  0  0  0
    1.0578    0.6817    0.0000 C   0  0  1  0  0  0  0  0  0  0  0  0
    0.2813    1.0749    0.0000 C   0  0  0  0  0  0  0  0  0  0  0  0
    1.0756    1.5959    0.0000 C   0  0  0  0  0  0  0  0  0  0  0  0
    0.6581    2.3494    0.0000 C   0  0  0  0  0  0  0  0  0  0  0  0
    0.5028    0.0566    0.0000 C   0  0  1  0  0  0  0  0  0  0  0  0
   -0.3589    0.0829    0.0000 O   0  0  0  0  0  0  0  0  0  0  0  0
    0.5849   -0.8004    0.0000 C   0  0  2  0  0  0  0  0  0  0  0  0
   -0.1758   -1.2011    0.0000 C   0  0  0  0  0  0  0  0  0  0  0  0
    3.2004    0.6888    0.0000 O   0  0  0  0  0  0  0  0  0  0  0  0
    4.0639    0.8447    0.0000 C   0  0  0  0  0  0  0  0  0  0  0  0
    3.5534    0.1966    0.0000 O   0  0  0  0  0  0  0  0  0  0  0  0
    4.9129    0.7219    0.0000 C   0  0  0  0  0  0  0  0  0  0  0  0
    5.4853    0.0424    0.0000 S   0  0  0  0  0  0  0  0  0  0  0  0
    6.3357    0.1998    0.0000 C   0  0  0  0  0  0  0  0  0  0  0  0
    6.9602   -0.3810    0.0000 C   0  0  0  0  0  0  0  0  0  0  0  0
    7.6806    0.0686    0.0000 N   0  0  0  0  0  0  0  0  0  0  0  0
    8.1844   -0.5847    0.0000 C   0  0  0  0  0  0  0  0  0  0  0  0
    9.0021   -0.4752    0.0000 C   0  0  0  0  0  0  0  0  0  0  0  0
    8.0000    0.8447    0.0000 C   0  0  0  0  0  0  0  0  0  0  0  0
    8.8177    0.9542    0.0000 C   0  0  0  0  0  0  0  0  0  0  0  0
  2  1  1  1  0  0  0
  2  3  1  0  0  0  0
  3  4  2  0  0  0  0
  3  5  1  0  0  0  0
  5  6  1  0  0  0  0
  7  6  1  1  0  0  0
  2  7  1  0  0  0  0
  7  8  1  0  0  0  0
  8  9  1  0  0  0  0
  9 10  1  0  0  0  0
 10 11  1  6  0  0  0
 10 12  1  0  0  0  0
  2 12  1  0  0  0  0
 12 13  1  1  0  0  0
 12 14  1  0  0  0  0
 14 15  1  0  0  0  0
 15 16  1  0  0  0  0
 16 17  1  1  0  0  0
 16 18  1  6  0  0  0
 18 19  2  0  0  0  0
 16 20  1  0  0  0  0
 20 21  1  6  0  0  0
 20 22  1  0  0  0  0
  7 22  1  0  0  0  0
 22 23  1  1  0  0  0
 14 24  1  1  0  0  0
 24 25  1  0  0  0  0
 25 26  2  0  0  0  0
 25 27  1  0  0  0  0
 27 28  1  0  0  0  0
 28 29  1  0  0  0  0
 29 30  1  0  0  0  0
 30 31  1  0  0  0  0
 31 32  1  0  0  0  0
 32 33  1  0  0  0  0
 31 34  1  0  0  0  0
 34 35  1  0  0  0  0
M  END
>  <ID>
5628

>  <PREFERRED_NAME>
tiamulin

>  <CAS_RN>
55297-95-5

>  <SYNONYMS>
tiamulin
tiamulin hydrogen fumarate

>  <URL>
http://drugcentral.org/drugcard/5628/view

$$$$
