tiazofurine
  -INDIGO-06102311102D

 17 18  0  0  1  0  0  0  0  0999 V2000
    1.9709    0.2323    0.0000 N   0  0  0  0  0  0  0  0  0  0  0  0
    1.2564   -0.1802    0.0000 C   0  0  0  0  0  0  0  0  0  0  0  0
    0.5420    0.2323    0.0000 O   0  0  0  0  0  0  0  0  0  0  0  0
    1.2564   -1.0052    0.0000 C   0  0  0  0  0  0  0  0  0  0  0  0
    1.9239   -1.4901    0.0000 C   0  0  0  0  0  0  0  0  0  0  0  0
    1.6689   -2.2748    0.0000 S   0  0  0  0  0  0  0  0  0  0  0  0
    0.8439   -2.2748    0.0000 C   0  0  0  0  0  0  0  0  0  0  0  0
    0.5890   -1.4901    0.0000 N   0  0  0  0  0  0  0  0  0  0  0  0
    0.3590   -2.9422    0.0000 C   0  0  2  0  0  0  0  0  0  0  0  0
    0.6139   -3.7268    0.0000 O   0  0  0  0  0  0  0  0  0  0  0  0
   -0.0535   -4.2117    0.0000 C   0  0  2  0  0  0  0  0  0  0  0  0
   -0.0535   -5.0367    0.0000 C   0  0  0  0  0  0  0  0  0  0  0  0
    0.6610   -5.4492    0.0000 O   0  0  0  0  0  0  0  0  0  0  0  0
   -0.7209   -3.7268    0.0000 C   0  0  1  0  0  0  0  0  0  0  0  0
   -1.5056   -3.9818    0.0000 O   0  0  0  0  0  0  0  0  0  0  0  0
   -0.4660   -2.9422    0.0000 C   0  0  1  0  0  0  0  0  0  0  0  0
   -0.9509   -2.2748    0.0000 O   0  0  0  0  0  0  0  0  0  0  0  0
  1  2  1  0  0  0  0
  2  3  2  0  0  0  0
  2  4  1  0  0  0  0
  4  5  4  0  0  0  0
  5  6  4  0  0  0  0
  6  7  4  0  0  0  0
  7  8  4  0  0  0  0
  4  8  4  0  0  0  0
  9  7  1  6  0  0  0
  9 10  1  0  0  0  0
 10 11  1  0  0  0  0
 11 12  1  6  0  0  0
 12 13  1  0  0  0  0
 11 14  1  0  0  0  0
 14 15  1  1  0  0  0
 14 16  1  0  0  0  0
  9 16  1  0  0  0  0
 16 17  1  1  0  0  0
M  END
>  <ID>
3605

>  <PREFERRED_NAME>
tiazofurine

>  <CAS_RN>
60084-10-8

>  <SYNONYMS>
tiazofurine
tiazofurin
riboxamide

>  <URL>
http://drugcentral.org/drugcard/3605/view

$$$$
