tigemonam
  -INDIGO-06102311102D

 28 29  0  0  1  0  0  0  0  0999 V2000
    4.3595    0.2759    0.0000 C   0  0  0  0  0  0  0  0  0  0  0  0
    3.7762   -0.3074    0.0000 C   0  0  0  0  0  0  0  0  0  0  0  0
    3.1928    0.2759    0.0000 C   0  0  0  0  0  0  0  0  0  0  0  0
    4.3595   -0.8908    0.0000 C   0  0  2  0  0  0  0  0  0  0  0  0
    5.1845   -0.8908    0.0000 N   0  0  0  0  0  0  0  0  0  0  0  0
    5.5970   -0.1763    0.0000 C   0  0  0  0  0  0  0  0  0  0  0  0
    5.1845    0.5381    0.0000 O   0  0  0  0  0  0  0  0  0  0  0  0
    6.4220   -0.1763    0.0000 C   0  0  0  0  0  0  0  0  0  0  0  0
    6.8345    0.5381    0.0000 N   0  0  0  0  0  0  0  0  0  0  0  0
    6.4220    1.2526    0.0000 O   0  0  0  0  0  0  0  0  0  0  0  0
    6.8345    1.9671    0.0000 C   0  0  0  0  0  0  0  0  0  0  0  0
    7.6595    1.9671    0.0000 C   0  0  0  0  0  0  0  0  0  0  0  0
    8.0720    1.2526    0.0000 O   0  0  0  0  0  0  0  0  0  0  0  0
    8.0720    2.6815    0.0000 O   0  0  0  0  0  0  0  0  0  0  0  0
    6.8345   -0.8908    0.0000 C   0  0  0  0  0  0  0  0  0  0  0  0
    7.6550   -0.9770    0.0000 C   0  0  0  0  0  0  0  0  0  0  0  0
    7.8265   -1.7840    0.0000 S   0  0  0  0  0  0  0  0  0  0  0  0
    7.1121   -2.1965    0.0000 C   0  0  0  0  0  0  0  0  0  0  0  0
    7.0258   -3.0170    0.0000 N   0  0  0  0  0  0  0  0  0  0  0  0
    6.4990   -1.6445    0.0000 N   0  0  0  0  0  0  0  0  0  0  0  0
    3.7762   -1.4742    0.0000 C   0  0  0  0  0  0  0  0  0  0  0  0
    3.7762   -2.2992    0.0000 O   0  0  0  0  0  0  0  0  0  0  0  0
    3.1928   -0.8908    0.0000 N   0  0  0  0  0  0  0  0  0  0  0  0
    2.3678   -0.8908    0.0000 O   0  0  0  0  0  0  0  0  0  0  0  0
    1.9553   -1.6053    0.0000 S   0  0  0  0  0  0  0  0  0  0  0  0
    1.5428   -2.3198    0.0000 O   0  0  0  0  0  0  0  0  0  0  0  0
    1.2408   -1.1928    0.0000 O   0  0  0  0  0  0  0  0  0  0  0  0
    2.6698   -2.0178    0.0000 O   0  0  0  0  0  0  0  0  0  0  0  0
  1  2  1  0  0  0  0
  2  3  1  0  0  0  0
  2  4  1  0  0  0  0
  4  5  1  6  0  0  0
  5  6  1  0  0  0  0
  6  7  2  0  0  0  0
  6  8  1  0  0  0  0
  8  9  2  0  0  0  0
  9 10  1  0  0  0  0
 10 11  1  0  0  0  0
 11 12  1  0  0  0  0
 12 13  1  0  0  0  0
 12 14  2  0  0  0  0
  8 15  1  0  0  0  0
 15 16  4  0  0  0  0
 16 17  4  0  0  0  0
 17 18  4  0  0  0  0
 18 19  1  0  0  0  0
 18 20  4  0  0  0  0
 15 20  4  0  0  0  0
  4 21  1  0  0  0  0
 21 22  2  0  0  0  0
 21 23  1  0  0  0  0
  2 23  1  0  0  0  0
 23 24  1  0  0  0  0
 24 25  1  0  0  0  0
 25 26  1  0  0  0  0
 25 27  2  0  0  0  0
 25 28  2  0  0  0  0
M  END
>  <ID>
3842

>  <PREFERRED_NAME>
tigemonam

>  <CAS_RN>
102507-71-1

>  <SYNONYMS>
tigemonam

>  <URL>
http://drugcentral.org/drugcard/3842/view

$$$$
