tipranavir
  -INDIGO-06102311102D

 42 45  0  0  1  0  0  0  0  0999 V2000
    5.1973   -4.8240    0.0000 C   0  0  0  0  0  0  0  0  0  0  0  0
    4.9151   -4.0488    0.0000 C   0  0  0  0  0  0  0  0  0  0  0  0
    4.1027   -3.9055    0.0000 C   0  0  0  0  0  0  0  0  0  0  0  0
    3.5724   -4.5375    0.0000 C   0  0  1  0  0  0  0  0  0  0  0  0
    3.0421   -3.9055    0.0000 C   0  0  0  0  0  0  0  0  0  0  0  0
    3.3242   -3.1303    0.0000 C   0  0  0  0  0  0  0  0  0  0  0  0
    4.1367   -2.9870    0.0000 C   0  0  0  0  0  0  0  0  0  0  0  0
    4.4189   -2.2118    0.0000 C   0  0  0  0  0  0  0  0  0  0  0  0
    5.2313   -2.0685    0.0000 C   0  0  0  0  0  0  0  0  0  0  0  0
    5.7616   -2.7005    0.0000 C   0  0  0  0  0  0  0  0  0  0  0  0
    5.4795   -3.4757    0.0000 C   0  0  0  0  0  0  0  0  0  0  0  0
    4.6670   -3.6190    0.0000 C   0  0  0  0  0  0  0  0  0  0  0  0
    4.2868   -4.9500    0.0000 C   0  0  0  0  0  0  0  0  0  0  0  0
    4.2868   -5.7750    0.0000 C   0  0  0  0  0  0  0  0  0  0  0  0
    5.0013   -6.1875    0.0000 O   0  0  0  0  0  0  0  0  0  0  0  0
    3.5724   -6.1875    0.0000 C   0  0  0  0  0  0  0  0  0  0  0  0
    3.5724   -7.0125    0.0000 C   0  0  2  0  0  0  0  0  0  0  0  0
    4.2868   -7.4250    0.0000 C   0  0  0  0  0  0  0  0  0  0  0  0
    4.2868   -8.2500    0.0000 C   0  0  0  0  0  0  0  0  0  0  0  0
    2.8579   -7.4250    0.0000 C   0  0  0  0  0  0  0  0  0  0  0  0
    2.8579   -8.2500    0.0000 C   0  0  0  0  0  0  0  0  0  0  0  0
    2.1434   -8.6625    0.0000 C   0  0  0  0  0  0  0  0  0  0  0  0
    2.1434   -9.4875    0.0000 N   0  0  0  0  0  0  0  0  0  0  0  0
    1.4289   -9.9000    0.0000 S   0  0  0  0  0  0  0  0  0  0  0  0
    1.0164   -9.1855    0.0000 O   0  0  0  0  0  0  0  0  0  0  0  0
    1.8414  -10.6145    0.0000 O   0  0  0  0  0  0  0  0  0  0  0  0
    0.7145  -10.3125    0.0000 C   0  0  0  0  0  0  0  0  0  0  0  0
    0.7145  -11.1375    0.0000 C   0  0  0  0  0  0  0  0  0  0  0  0
    0.0000  -11.5500    0.0000 C   0  0  0  0  0  0  0  0  0  0  0  0
   -0.7145  -11.1375    0.0000 C   0  0  0  0  0  0  0  0  0  0  0  0
   -0.7145  -10.3125    0.0000 C   0  0  0  0  0  0  0  0  0  0  0  0
    0.0000   -9.9000    0.0000 N   0  0  0  0  0  0  0  0  0  0  0  0
   -1.4289  -11.5500    0.0000 C   0  0  0  0  0  0  0  0  0  0  0  0
   -2.1434  -11.9625    0.0000 F   0  0  0  0  0  0  0  0  0  0  0  0
   -1.8414  -10.8355    0.0000 F   0  0  0  0  0  0  0  0  0  0  0  0
   -1.0164  -12.2645    0.0000 F   0  0  0  0  0  0  0  0  0  0  0  0
    1.4289   -8.2500    0.0000 C   0  0  0  0  0  0  0  0  0  0  0  0
    1.4289   -7.4250    0.0000 C   0  0  0  0  0  0  0  0  0  0  0  0
    2.1434   -7.0125    0.0000 C   0  0  0  0  0  0  0  0  0  0  0  0
    2.8579   -5.7750    0.0000 C   0  0  0  0  0  0  0  0  0  0  0  0
    2.1434   -6.1875    0.0000 O   0  0  0  0  0  0  0  0  0  0  0  0
    2.8579   -4.9500    0.0000 O   0  0  0  0  0  0  0  0  0  0  0  0
  1  2  1  0  0  0  0
  2  3  1  0  0  0  0
  4  3  1  1  0  0  0
  4  5  1  6  0  0  0
  5  6  1  0  0  0  0
  6  7  1  0  0  0  0
  7  8  4  0  0  0  0
  8  9  4  0  0  0  0
  9 10  4  0  0  0  0
 10 11  4  0  0  0  0
 11 12  4  0  0  0  0
  7 12  4  0  0  0  0
  4 13  1  0  0  0  0
 13 14  1  0  0  0  0
 14 15  1  0  0  0  0
 14 16  2  0  0  0  0
 16 17  1  0  0  0  0
 17 18  1  6  0  0  0
 18 19  1  0  0  0  0
 17 20  1  0  0  0  0
 20 21  4  0  0  0  0
 21 22  4  0  0  0  0
 22 23  1  0  0  0  0
 23 24  1  0  0  0  0
 24 25  2  0  0  0  0
 24 26  2  0  0  0  0
 24 27  1  0  0  0  0
 27 28  4  0  0  0  0
 28 29  4  0  0  0  0
 29 30  4  0  0  0  0
 30 31  4  0  0  0  0
 31 32  4  0  0  0  0
 27 32  4  0  0  0  0
 30 33  1  0  0  0  0
 33 34  1  0  0  0  0
 33 35  1  0  0  0  0
 33 36  1  0  0  0  0
 22 37  4  0  0  0  0
 37 38  4  0  0  0  0
 38 39  4  0  0  0  0
 20 39  4  0  0  0  0
 16 40  1  0  0  0  0
 40 41  2  0  0  0  0
 40 42  1  0  0  0  0
  4 42  1  0  0  0  0
M  END
>  <ID>
3609

>  <PREFERRED_NAME>
tipranavir

>  <CAS_RN>
174484-41-4

>  <SYNONYMS>
tipranavir
aptivus
PNU-140690
PNU 140690

>  <URL>
http://drugcentral.org/drugcard/3609/view

$$$$
