tiracizine
  -INDIGO-06102311062D

 27 29  0  0  0  0  0  0  0  0999 V2000
    1.2175   -3.7218    0.0000 C   0  0  0  0  0  0  0  0  0  0  0  0
    1.9319   -3.3093    0.0000 C   0  0  0  0  0  0  0  0  0  0  0  0
    2.6464   -3.7218    0.0000 O   0  0  0  0  0  0  0  0  0  0  0  0
    3.3609   -3.3093    0.0000 C   0  0  0  0  0  0  0  0  0  0  0  0
    3.3609   -2.4843    0.0000 O   0  0  0  0  0  0  0  0  0  0  0  0
    4.0753   -3.7218    0.0000 N   0  0  0  0  0  0  0  0  0  0  0  0
    4.7898   -3.3093    0.0000 C   0  0  0  0  0  0  0  0  0  0  0  0
    4.7898   -2.4843    0.0000 C   0  0  0  0  0  0  0  0  0  0  0  0
    5.5043   -2.0718    0.0000 C   0  0  0  0  0  0  0  0  0  0  0  0
    6.2188   -2.4843    0.0000 C   0  0  0  0  0  0  0  0  0  0  0  0
    6.8638   -1.9699    0.0000 C   0  0  0  0  0  0  0  0  0  0  0  0
    7.6681   -2.1535    0.0000 C   0  0  0  0  0  0  0  0  0  0  0  0
    8.0260   -2.8968    0.0000 C   0  0  0  0  0  0  0  0  0  0  0  0
    7.6681   -3.6401    0.0000 C   0  0  0  0  0  0  0  0  0  0  0  0
    8.1328   -4.3217    0.0000 C   0  0  0  0  0  0  0  0  0  0  0  0
    8.9555   -4.2601    0.0000 C   0  0  0  0  0  0  0  0  0  0  0  0
    9.3135   -3.5168    0.0000 C   0  0  0  0  0  0  0  0  0  0  0  0
    8.8487   -2.8351    0.0000 C   0  0  0  0  0  0  0  0  0  0  0  0
    6.8638   -3.8237    0.0000 N   0  0  0  0  0  0  0  0  0  0  0  0
    6.6802   -4.6280    0.0000 C   0  0  0  0  0  0  0  0  0  0  0  0
    5.8918   -4.8712    0.0000 O   0  0  0  0  0  0  0  0  0  0  0  0
    7.2850   -5.1891    0.0000 C   0  0  0  0  0  0  0  0  0  0  0  0
    7.1014   -5.9935    0.0000 N   0  0  0  0  0  0  0  0  0  0  0  0
    7.7061   -6.5546    0.0000 C   0  0  0  0  0  0  0  0  0  0  0  0
    6.3130   -6.2366    0.0000 C   0  0  0  0  0  0  0  0  0  0  0  0
    6.2188   -3.3093    0.0000 C   0  0  0  0  0  0  0  0  0  0  0  0
    5.5043   -3.7218    0.0000 C   0  0  0  0  0  0  0  0  0  0  0  0
  1  2  1  0  0  0  0
  2  3  1  0  0  0  0
  3  4  1  0  0  0  0
  4  5  2  0  0  0  0
  4  6  1  0  0  0  0
  6  7  1  0  0  0  0
  7  8  4  0  0  0  0
  8  9  4  0  0  0  0
  9 10  4  0  0  0  0
 10 11  1  0  0  0  0
 11 12  1  0  0  0  0
 12 13  1  0  0  0  0
 13 14  4  0  0  0  0
 14 15  4  0  0  0  0
 15 16  4  0  0  0  0
 16 17  4  0  0  0  0
 17 18  4  0  0  0  0
 13 18  4  0  0  0  0
 14 19  1  0  0  0  0
 19 20  1  0  0  0  0
 20 21  2  0  0  0  0
 20 22  1  0  0  0  0
 22 23  1  0  0  0  0
 23 24  1  0  0  0  0
 23 25  1  0  0  0  0
 19 26  1  0  0  0  0
 10 26  4  0  0  0  0
 26 27  4  0  0  0  0
  7 27  4  0  0  0  0
M  END
>  <ID>
2679

>  <PREFERRED_NAME>
tiracizine

>  <CAS_RN>
83275-56-3

>  <SYNONYMS>
tiracizine

>  <URL>
http://drugcentral.org/drugcard/2679/view

$$$$
