tocofibrate
  -INDIGO-06102311062D

 44 46  0  0  1  0  0  0  0  0999 V2000
   -0.2440   -9.0489    0.0000 C   0  0  0  0  0  0  0  0  0  0  0  0
    0.4704   -8.6364    0.0000 C   0  0  0  0  0  0  0  0  0  0  0  0
    0.4704   -7.8114    0.0000 C   0  0  0  0  0  0  0  0  0  0  0  0
    1.1849   -9.0489    0.0000 C   0  0  0  0  0  0  0  0  0  0  0  0
    1.8994   -8.6364    0.0000 C   0  0  0  0  0  0  0  0  0  0  0  0
    2.6139   -9.0489    0.0000 C   0  0  0  0  0  0  0  0  0  0  0  0
    3.3283   -8.6364    0.0000 C   0  0  1  0  0  0  0  0  0  0  0  0
    3.3283   -7.8114    0.0000 C   0  0  0  0  0  0  0  0  0  0  0  0
    4.0428   -9.0489    0.0000 C   0  0  0  0  0  0  0  0  0  0  0  0
    4.7573   -8.6364    0.0000 C   0  0  0  0  0  0  0  0  0  0  0  0
    5.4717   -9.0489    0.0000 C   0  0  0  0  0  0  0  0  0  0  0  0
    6.1862   -8.6364    0.0000 C   0  0  1  0  0  0  0  0  0  0  0  0
    6.1862   -7.8114    0.0000 C   0  0  0  0  0  0  0  0  0  0  0  0
    6.9007   -9.0489    0.0000 C   0  0  0  0  0  0  0  0  0  0  0  0
    7.6152   -8.6364    0.0000 C   0  0  0  0  0  0  0  0  0  0  0  0
    8.3296   -9.0489    0.0000 C   0  0  0  0  0  0  0  0  0  0  0  0
    9.0441   -8.6364    0.0000 C   0  0  2  0  0  0  0  0  0  0  0  0
    9.3263   -9.4117    0.0000 C   0  0  0  0  0  0  0  0  0  0  0  0
    8.5138   -8.0044    0.0000 C   0  0  0  0  0  0  0  0  0  0  0  0
    8.7960   -7.2292    0.0000 C   0  0  0  0  0  0  0  0  0  0  0  0
    9.6084   -7.0859    0.0000 C   0  0  0  0  0  0  0  0  0  0  0  0
    9.8906   -6.3107    0.0000 C   0  0  0  0  0  0  0  0  0  0  0  0
    9.3603   -5.6787    0.0000 C   0  0  0  0  0  0  0  0  0  0  0  0
   10.7031   -6.1674    0.0000 C   0  0  0  0  0  0  0  0  0  0  0  0
   10.9852   -5.3922    0.0000 O   0  0  0  0  0  0  0  0  0  0  0  0
   11.7977   -5.2489    0.0000 C   0  0  0  0  0  0  0  0  0  0  0  0
   12.3280   -5.8809    0.0000 O   0  0  0  0  0  0  0  0  0  0  0  0
   12.0799   -4.4737    0.0000 C   0  0  0  0  0  0  0  0  0  0  0  0
   12.8551   -4.7558    0.0000 C   0  0  0  0  0  0  0  0  0  0  0  0
   11.3046   -4.1915    0.0000 C   0  0  0  0  0  0  0  0  0  0  0  0
   12.3620   -3.6984    0.0000 O   0  0  0  0  0  0  0  0  0  0  0  0
   13.1745   -3.5552    0.0000 C   0  0  0  0  0  0  0  0  0  0  0  0
   13.4567   -2.7799    0.0000 C   0  0  0  0  0  0  0  0  0  0  0  0
   14.2691   -2.6366    0.0000 C   0  0  0  0  0  0  0  0  0  0  0  0
   14.7994   -3.2686    0.0000 C   0  0  0  0  0  0  0  0  0  0  0  0
   15.6119   -3.1254    0.0000 Cl  0  0  0  0  0  0  0  0  0  0  0  0
   14.5173   -4.0439    0.0000 C   0  0  0  0  0  0  0  0  0  0  0  0
   13.7048   -4.1871    0.0000 C   0  0  0  0  0  0  0  0  0  0  0  0
   11.2334   -6.7994    0.0000 C   0  0  0  0  0  0  0  0  0  0  0  0
   12.0458   -6.6561    0.0000 C   0  0  0  0  0  0  0  0  0  0  0  0
   10.9512   -7.5746    0.0000 C   0  0  0  0  0  0  0  0  0  0  0  0
   11.4815   -8.2066    0.0000 C   0  0  0  0  0  0  0  0  0  0  0  0
   10.1387   -7.7179    0.0000 C   0  0  0  0  0  0  0  0  0  0  0  0
    9.8566   -8.4932    0.0000 O   0  0  0  0  0  0  0  0  0  0  0  0
  1  2  1  0  0  0  0
  2  3  1  0  0  0  0
  2  4  1  0  0  0  0
  4  5  1  0  0  0  0
  5  6  1  0  0  0  0
  6  7  1  0  0  0  0
  7  8  1  1  0  0  0
  7  9  1  0  0  0  0
  9 10  1  0  0  0  0
 10 11  1  0  0  0  0
 11 12  1  0  0  0  0
 12 13  1  1  0  0  0
 12 14  1  0  0  0  0
 14 15  1  0  0  0  0
 15 16  1  0  0  0  0
 17 16  1  6  0  0  0
 17 18  1  1  0  0  0
 17 19  1  0  0  0  0
 19 20  1  0  0  0  0
 20 21  1  0  0  0  0
 21 22  4  0  0  0  0
 22 23  1  0  0  0  0
 22 24  4  0  0  0  0
 24 25  1  0  0  0  0
 25 26  1  0  0  0  0
 26 27  2  0  0  0  0
 26 28  1  0  0  0  0
 28 29  1  0  0  0  0
 28 30  1  0  0  0  0
 28 31  1  0  0  0  0
 31 32  1  0  0  0  0
 32 33  4  0  0  0  0
 33 34  4  0  0  0  0
 34 35  4  0  0  0  0
 35 36  1  0  0  0  0
 35 37  4  0  0  0  0
 37 38  4  0  0  0  0
 32 38  4  0  0  0  0
 24 39  4  0  0  0  0
 39 40  1  0  0  0  0
 39 41  4  0  0  0  0
 41 42  1  0  0  0  0
 41 43  4  0  0  0  0
 21 43  4  0  0  0  0
 43 44  1  0  0  0  0
 17 44  1  0  0  0  0
M  END
>  <ID>
2688

>  <PREFERRED_NAME>
tocofibrate

>  <CAS_RN>
50465-39-9

>  <SYNONYMS>
tocofibrate

>  <URL>
http://drugcentral.org/drugcard/2688/view

$$$$
