tocopheryl nicotinate
  -INDIGO-06102311062D

 39 41  0  0  1  0  0  0  0  0999 V2000
    7.3004   -1.4434    0.0000 C   0  0  0  0  0  0  0  0  0  0  0  0
    7.7129   -2.1578    0.0000 C   0  0  0  0  0  0  0  0  0  0  0  0
    8.5379   -2.1578    0.0000 C   0  0  0  0  0  0  0  0  0  0  0  0
    7.3004   -2.8723    0.0000 C   0  0  0  0  0  0  0  0  0  0  0  0
    7.7129   -3.5868    0.0000 C   0  0  0  0  0  0  0  0  0  0  0  0
    7.3004   -4.3012    0.0000 C   0  0  0  0  0  0  0  0  0  0  0  0
    7.7129   -5.0157    0.0000 C   0  0  1  0  0  0  0  0  0  0  0  0
    7.3004   -5.7302    0.0000 C   0  0  0  0  0  0  0  0  0  0  0  0
    8.5379   -5.0157    0.0000 C   0  0  0  0  0  0  0  0  0  0  0  0
    8.9504   -4.3012    0.0000 C   0  0  0  0  0  0  0  0  0  0  0  0
    9.7754   -4.3012    0.0000 C   0  0  0  0  0  0  0  0  0  0  0  0
   10.1879   -3.5868    0.0000 C   0  0  1  0  0  0  0  0  0  0  0  0
    9.7754   -2.8723    0.0000 C   0  0  0  0  0  0  0  0  0  0  0  0
   11.0129   -3.5868    0.0000 C   0  0  0  0  0  0  0  0  0  0  0  0
   11.4254   -2.8723    0.0000 C   0  0  0  0  0  0  0  0  0  0  0  0
   12.2504   -2.8723    0.0000 C   0  0  0  0  0  0  0  0  0  0  0  0
   12.6629   -3.5868    0.0000 C   0  0  2  0  0  0  0  0  0  0  0  0
   11.8876   -3.8689    0.0000 C   0  0  0  0  0  0  0  0  0  0  0  0
   13.2949   -3.0565    0.0000 C   0  0  0  0  0  0  0  0  0  0  0  0
   14.0701   -3.3386    0.0000 C   0  0  0  0  0  0  0  0  0  0  0  0
   14.2134   -4.1511    0.0000 C   0  0  0  0  0  0  0  0  0  0  0  0
   14.9886   -4.4333    0.0000 C   0  0  0  0  0  0  0  0  0  0  0  0
   15.6206   -3.9030    0.0000 C   0  0  0  0  0  0  0  0  0  0  0  0
   15.1319   -5.2457    0.0000 C   0  0  0  0  0  0  0  0  0  0  0  0
   15.9071   -5.5279    0.0000 O   0  0  0  0  0  0  0  0  0  0  0  0
   16.5391   -4.9976    0.0000 C   0  0  0  0  0  0  0  0  0  0  0  0
   16.3959   -4.1851    0.0000 O   0  0  0  0  0  0  0  0  0  0  0  0
   17.3144   -5.2798    0.0000 C   0  0  0  0  0  0  0  0  0  0  0  0
   17.9463   -4.7495    0.0000 C   0  0  0  0  0  0  0  0  0  0  0  0
   18.7216   -5.0316    0.0000 N   0  0  0  0  0  0  0  0  0  0  0  0
   18.8648   -5.8441    0.0000 C   0  0  0  0  0  0  0  0  0  0  0  0
   18.2329   -6.3744    0.0000 C   0  0  0  0  0  0  0  0  0  0  0  0
   17.4576   -6.0922    0.0000 C   0  0  0  0  0  0  0  0  0  0  0  0
   14.4999   -5.7760    0.0000 C   0  0  0  0  0  0  0  0  0  0  0  0
   14.6431   -6.5885    0.0000 C   0  0  0  0  0  0  0  0  0  0  0  0
   13.7246   -5.4939    0.0000 C   0  0  0  0  0  0  0  0  0  0  0  0
   13.0927   -6.0242    0.0000 C   0  0  0  0  0  0  0  0  0  0  0  0
   13.5814   -4.6814    0.0000 C   0  0  0  0  0  0  0  0  0  0  0  0
   12.8061   -4.3992    0.0000 O   0  0  0  0  0  0  0  0  0  0  0  0
  1  2  1  0  0  0  0
  2  3  1  0  0  0  0
  2  4  1  0  0  0  0
  4  5  1  0  0  0  0
  5  6  1  0  0  0  0
  6  7  1  0  0  0  0
  7  8  1  6  0  0  0
  7  9  1  0  0  0  0
  9 10  1  0  0  0  0
 10 11  1  0  0  0  0
 11 12  1  0  0  0  0
 12 13  1  1  0  0  0
 12 14  1  0  0  0  0
 14 15  1  0  0  0  0
 15 16  1  0  0  0  0
 17 16  1  6  0  0  0
 17 18  1  1  0  0  0
 17 19  1  0  0  0  0
 19 20  1  0  0  0  0
 20 21  1  0  0  0  0
 21 22  4  0  0  0  0
 22 23  1  0  0  0  0
 22 24  4  0  0  0  0
 24 25  1  0  0  0  0
 25 26  1  0  0  0  0
 26 27  2  0  0  0  0
 26 28  1  0  0  0  0
 28 29  4  0  0  0  0
 29 30  4  0  0  0  0
 30 31  4  0  0  0  0
 31 32  4  0  0  0  0
 32 33  4  0  0  0  0
 28 33  4  0  0  0  0
 24 34  4  0  0  0  0
 34 35  1  0  0  0  0
 34 36  4  0  0  0  0
 36 37  1  0  0  0  0
 36 38  4  0  0  0  0
 21 38  4  0  0  0  0
 38 39  1  0  0  0  0
 17 39  1  0  0  0  0
M  END
>  <ID>
2689

>  <PREFERRED_NAME>
tocopheryl nicotinate

>  <CAS_RN>
43119-47-7

>  <SYNONYMS>
tocopheryl nicotinate
tocopherol nicotinate
Vitamin E nicotinate
alpha-Tocopherol nicotinate

>  <URL>
http://drugcentral.org/drugcard/2689/view

$$$$
