tocofersolan
  -INDIGO-06102311112D

 31 32  0  0  1  0  0  0  0  0999 V2000
    7.7105    0.4309    0.0000 C   0  0  0  0  0  0  0  0  0  0  0  0
    8.4249    0.8434    0.0000 C   0  0  0  0  0  0  0  0  0  0  0  0
    8.4249    1.6684    0.0000 C   0  0  0  0  0  0  0  0  0  0  0  0
    9.1394    0.4309    0.0000 C   0  0  0  0  0  0  0  0  0  0  0  0
    9.8539    0.8434    0.0000 C   0  0  0  0  0  0  0  0  0  0  0  0
   10.5684    0.4309    0.0000 C   0  0  0  0  0  0  0  0  0  0  0  0
   11.2828    0.8434    0.0000 C   0  0  1  0  0  0  0  0  0  0  0  0
   11.2828    1.6684    0.0000 C   0  0  0  0  0  0  0  0  0  0  0  0
   11.9973    0.4309    0.0000 C   0  0  0  0  0  0  0  0  0  0  0  0
   12.7118    0.8434    0.0000 C   0  0  0  0  0  0  0  0  0  0  0  0
   13.4262    0.4309    0.0000 C   0  0  0  0  0  0  0  0  0  0  0  0
   14.1407    0.8434    0.0000 C   0  0  1  0  0  0  0  0  0  0  0  0
   14.1407    1.6684    0.0000 C   0  0  0  0  0  0  0  0  0  0  0  0
   14.8552    0.4309    0.0000 C   0  0  0  0  0  0  0  0  0  0  0  0
   15.5696    0.8434    0.0000 C   0  0  0  0  0  0  0  0  0  0  0  0
   16.2841    0.4309    0.0000 C   0  0  0  0  0  0  0  0  0  0  0  0
   16.2841   -0.3941    0.0000 C   0  0  2  0  0  0  0  0  0  0  0  0
   15.4717   -0.2509    0.0000 C   0  0  0  0  0  0  0  0  0  0  0  0
   17.0966   -0.2509    0.0000 C   0  0  0  0  0  0  0  0  0  0  0  0
   17.6269   -0.8828    0.0000 C   0  0  0  0  0  0  0  0  0  0  0  0
   17.3447   -1.6581    0.0000 C   0  0  0  0  0  0  0  0  0  0  0  0
   17.8750   -2.2901    0.0000 C   0  0  0  0  0  0  0  0  0  0  0  0
   18.6875   -2.1468    0.0000 C   0  0  0  0  0  0  0  0  0  0  0  0
   17.5929   -3.0653    0.0000 C   0  0  0  0  0  0  0  0  0  0  0  0
   18.1232   -3.6973    0.0000 O   0  0  0  0  0  0  0  0  0  0  0  0
   16.7804   -3.2086    0.0000 C   0  0  0  0  0  0  0  0  0  0  0  0
   16.4982   -3.9838    0.0000 C   0  0  0  0  0  0  0  0  0  0  0  0
   16.2501   -2.5766    0.0000 C   0  0  0  0  0  0  0  0  0  0  0  0
   15.4376   -2.7199    0.0000 C   0  0  0  0  0  0  0  0  0  0  0  0
   16.5323   -1.8013    0.0000 C   0  0  0  0  0  0  0  0  0  0  0  0
   16.0020   -1.1694    0.0000 O   0  0  0  0  0  0  0  0  0  0  0  0
  1  2  1  0  0  0  0
  2  3  1  0  0  0  0
  2  4  1  0  0  0  0
  4  5  1  0  0  0  0
  5  6  1  0  0  0  0
  6  7  1  0  0  0  0
  7  8  1  1  0  0  0
  7  9  1  0  0  0  0
  9 10  1  0  0  0  0
 10 11  1  0  0  0  0
 11 12  1  0  0  0  0
 12 13  1  1  0  0  0
 12 14  1  0  0  0  0
 14 15  1  0  0  0  0
 15 16  1  0  0  0  0
 17 16  1  6  0  0  0
 17 18  1  1  0  0  0
 17 19  1  0  0  0  0
 19 20  1  0  0  0  0
 20 21  1  0  0  0  0
 21 22  4  0  0  0  0
 22 23  1  0  0  0  0
 22 24  4  0  0  0  0
 24 25  1  0  0  0  0
 24 26  4  0  0  0  0
 26 27  1  0  0  0  0
 26 28  4  0  0  0  0
 28 29  1  0  0  0  0
 28 30  4  0  0  0  0
 21 30  4  0  0  0  0
 30 31  1  0  0  0  0
 17 31  1  0  0  0  0
M  END
>  <ID>
4280

>  <PREFERRED_NAME>
tocofersolan

>  <CAS_RN>
59-02-9

>  <SYNONYMS>
tocofersolan
tocophersolan
.ALPHA.-TOCOPHEROL, D-
alpha-tocopherol
alpha-D-Tocopherol
syntopherol
ALPHA-TOCOPHEROL, D-
.ALPHA.-TOCOPHEROL
d-alpha-tocopherol
alpha-tocopherol, dl-
.Alpha.-tocopherol, DL-
vedrop

>  <URL>
http://drugcentral.org/drugcard/4280/view

$$$$
