travoprost
  -INDIGO-06102311062D

 35 36  0  0  1  0  0  0  0  0999 V2000
    4.6095    0.7553    0.0000 C   0  0  0  0  0  0  0  0  0  0  0  0
    5.3240    0.3428    0.0000 C   0  0  0  0  0  0  0  0  0  0  0  0
    5.3240   -0.4822    0.0000 C   0  0  0  0  0  0  0  0  0  0  0  0
    6.0384    0.7553    0.0000 O   0  0  0  0  0  0  0  0  0  0  0  0
    6.7529    0.3428    0.0000 C   0  0  0  0  0  0  0  0  0  0  0  0
    6.7529   -0.4822    0.0000 O   0  0  0  0  0  0  0  0  0  0  0  0
    7.4674    0.7553    0.0000 C   0  0  0  0  0  0  0  0  0  0  0  0
    8.1819    0.3428    0.0000 C   0  0  0  0  0  0  0  0  0  0  0  0
    8.8963    0.7553    0.0000 C   0  0  0  0  0  0  0  0  0  0  0  0
    8.8963    1.5803    0.0000 C   0  0  0  0  0  0  0  0  0  0  0  0
    9.6108    1.9928    0.0000 C   0  0  0  0  0  0  0  0  0  0  0  0
   10.3253    1.5803    0.0000 C   0  0  0  0  0  0  0  0  0  0  0  0
   11.0397    1.9928    0.0000 C   0  0  1  0  0  0  0  0  0  0  0  0
   11.1260    2.8133    0.0000 C   0  0  1  0  0  0  0  0  0  0  0  0
   10.5129    3.3653    0.0000 O   0  0  0  0  0  0  0  0  0  0  0  0
   11.9329    2.9848    0.0000 C   0  0  0  0  0  0  0  0  0  0  0  0
   12.3454    2.2703    0.0000 C   0  0  1  0  0  0  0  0  0  0  0  0
   13.1659    2.1841    0.0000 O   0  0  0  0  0  0  0  0  0  0  0  0
   11.7934    1.6572    0.0000 C   0  0  2  0  0  0  0  0  0  0  0  0
   11.9649    0.8503    0.0000 C   0  0  0  0  0  0  0  0  0  0  0  0
   11.3518    0.2982    0.0000 C   0  0  0  0  0  0  0  0  0  0  0  0
   11.5234   -0.5087    0.0000 C   0  0  1  0  0  0  0  0  0  0  0  0
   12.3080   -0.7637    0.0000 O   0  0  0  0  0  0  0  0  0  0  0  0
   10.9103   -1.0608    0.0000 C   0  0  0  0  0  0  0  0  0  0  0  0
   11.0818   -1.8677    0.0000 O   0  0  0  0  0  0  0  0  0  0  0  0
   10.4687   -2.4198    0.0000 C   0  0  0  0  0  0  0  0  0  0  0  0
   10.6402   -3.2267    0.0000 C   0  0  0  0  0  0  0  0  0  0  0  0
   10.0271   -3.7788    0.0000 C   0  0  0  0  0  0  0  0  0  0  0  0
    9.2425   -3.5238    0.0000 C   0  0  0  0  0  0  0  0  0  0  0  0
    9.0710   -2.7169    0.0000 C   0  0  0  0  0  0  0  0  0  0  0  0
    9.6841   -2.1648    0.0000 C   0  0  0  0  0  0  0  0  0  0  0  0
   10.1987   -4.5858    0.0000 C   0  0  0  0  0  0  0  0  0  0  0  0
   10.3702   -5.3927    0.0000 F   0  0  0  0  0  0  0  0  0  0  0  0
    9.3917   -4.7573    0.0000 F   0  0  0  0  0  0  0  0  0  0  0  0
   11.0056   -4.4142    0.0000 F   0  0  0  0  0  0  0  0  0  0  0  0
  1  2  1  0  0  0  0
  2  3  1  0  0  0  0
  2  4  1  0  0  0  0
  4  5  1  0  0  0  0
  5  6  2  0  0  0  0
  5  7  1  0  0  0  0
  7  8  1  0  0  0  0
  8  9  1  0  0  0  0
  9 10  1  0  0  0  0
 10 11  2  0  0  0  0
 11 12  1  0  0  0  0
 13 12  1  1  0  0  0
 13 14  1  0  0  0  0
 14 15  1  1  0  0  0
 14 16  1  0  0  0  0
 16 17  1  0  0  0  0
 17 18  1  1  0  0  0
 17 19  1  0  0  0  0
 13 19  1  0  0  0  0
 19 20  1  6  0  0  0
 20 21  2  0  0  0  0
 21 22  1  0  0  0  0
 22 23  1  1  0  0  0
 22 24  1  0  0  0  0
 24 25  1  0  0  0  0
 25 26  1  0  0  0  0
 26 27  4  0  0  0  0
 27 28  4  0  0  0  0
 28 29  4  0  0  0  0
 29 30  4  0  0  0  0
 30 31  4  0  0  0  0
 26 31  4  0  0  0  0
 28 32  1  0  0  0  0
 32 33  1  0  0  0  0
 32 34  1  0  0  0  0
 32 35  1  0  0  0  0
M  END
>  <ID>
2716

>  <PREFERRED_NAME>
travoprost

>  <CAS_RN>
157283-68-6

>  <SYNONYMS>
travoprost
izba
travaprost
travatan
travatanz

>  <URL>
http://drugcentral.org/drugcard/2716/view

$$$$
