tretinoin tocoferil
  -INDIGO-06102311062D

 52 54  0  0  0  0  0  0  0  0999 V2000
    2.8811   -5.9498    0.0000 C   0  0  0  0  0  0  0  0  0  0  0  0
    3.7061   -5.9498    0.0000 C   0  0  0  0  0  0  0  0  0  0  0  0
    4.1186   -5.2353    0.0000 C   0  0  0  0  0  0  0  0  0  0  0  0
    4.1186   -6.6642    0.0000 C   0  0  0  0  0  0  0  0  0  0  0  0
    4.9436   -6.6642    0.0000 C   0  0  0  0  0  0  0  0  0  0  0  0
    5.3561   -7.3787    0.0000 C   0  0  0  0  0  0  0  0  0  0  0  0
    6.1811   -7.3787    0.0000 C   0  0  0  0  0  0  0  0  0  0  0  0
    6.5936   -6.6642    0.0000 C   0  0  0  0  0  0  0  0  0  0  0  0
    6.5936   -8.0932    0.0000 C   0  0  0  0  0  0  0  0  0  0  0  0
    7.4186   -8.0932    0.0000 C   0  0  0  0  0  0  0  0  0  0  0  0
    7.8311   -8.8076    0.0000 C   0  0  0  0  0  0  0  0  0  0  0  0
    8.6561   -8.8076    0.0000 C   0  0  0  0  0  0  0  0  0  0  0  0
    9.0686   -9.5221    0.0000 C   0  0  0  0  0  0  0  0  0  0  0  0
    9.0686   -8.0932    0.0000 C   0  0  0  0  0  0  0  0  0  0  0  0
    8.6561   -7.3787    0.0000 C   0  0  0  0  0  0  0  0  0  0  0  0
    9.0686   -6.6642    0.0000 C   0  0  0  0  0  0  0  0  0  0  0  0
    9.8936   -6.6642    0.0000 C   0  0  0  0  0  0  0  0  0  0  0  0
    9.7503   -7.4767    0.0000 C   0  0  0  0  0  0  0  0  0  0  0  0
    9.7503   -5.8518    0.0000 C   0  0  0  0  0  0  0  0  0  0  0  0
   10.3823   -5.3215    0.0000 C   0  0  0  0  0  0  0  0  0  0  0  0
   11.1576   -5.6036    0.0000 C   0  0  0  0  0  0  0  0  0  0  0  0
   11.7895   -5.0733    0.0000 C   0  0  0  0  0  0  0  0  0  0  0  0
   11.6463   -4.2609    0.0000 C   0  0  0  0  0  0  0  0  0  0  0  0
   12.5648   -5.3555    0.0000 C   0  0  0  0  0  0  0  0  0  0  0  0
   13.1968   -4.8252    0.0000 O   0  0  0  0  0  0  0  0  0  0  0  0
   13.9720   -5.1074    0.0000 C   0  0  0  0  0  0  0  0  0  0  0  0
   14.1153   -5.9198    0.0000 O   0  0  0  0  0  0  0  0  0  0  0  0
   14.6040   -4.5771    0.0000 C   0  0  0  0  0  0  0  0  0  0  0  0
   15.3793   -4.8592    0.0000 C   0  0  0  0  0  0  0  0  0  0  0  0
   15.5225   -5.6717    0.0000 C   0  0  0  0  0  0  0  0  0  0  0  0
   16.0112   -4.3289    0.0000 C   0  0  0  0  0  0  0  0  0  0  0  0
   16.7865   -4.6111    0.0000 C   0  0  0  0  0  0  0  0  0  0  0  0
   17.4185   -4.0808    0.0000 C   0  0  0  0  0  0  0  0  0  0  0  0
   18.1937   -4.3630    0.0000 C   0  0  0  0  0  0  0  0  0  0  0  0
   18.3370   -5.1754    0.0000 C   0  0  0  0  0  0  0  0  0  0  0  0
   18.8257   -3.8327    0.0000 C   0  0  0  0  0  0  0  0  0  0  0  0
   18.6824   -3.0202    0.0000 C   0  0  0  0  0  0  0  0  0  0  0  0
   19.3144   -2.4899    0.0000 C   0  0  0  0  0  0  0  0  0  0  0  0
   19.1712   -1.6774    0.0000 C   0  0  0  0  0  0  0  0  0  0  0  0
   18.3959   -1.3953    0.0000 C   0  0  0  0  0  0  0  0  0  0  0  0
   19.8032   -1.1471    0.0000 C   0  0  0  0  0  0  0  0  0  0  0  0
   20.5784   -1.4293    0.0000 C   0  0  0  0  0  0  0  0  0  0  0  0
   20.7217   -2.2418    0.0000 C   0  0  0  0  0  0  0  0  0  0  0  0
   20.0897   -2.7721    0.0000 C   0  0  0  0  0  0  0  0  0  0  0  0
   20.5976   -3.4222    0.0000 C   0  0  0  0  0  0  0  0  0  0  0  0
   19.8347   -3.5567    0.0000 C   0  0  0  0  0  0  0  0  0  0  0  0
   12.7080   -6.1680    0.0000 C   0  0  0  0  0  0  0  0  0  0  0  0
   13.4833   -6.4501    0.0000 C   0  0  0  0  0  0  0  0  0  0  0  0
   12.0761   -6.6983    0.0000 C   0  0  0  0  0  0  0  0  0  0  0  0
   12.2193   -7.5107    0.0000 C   0  0  0  0  0  0  0  0  0  0  0  0
   11.3008   -6.4161    0.0000 C   0  0  0  0  0  0  0  0  0  0  0  0
   10.6688   -6.9464    0.0000 O   0  0  0  0  0  0  0  0  0  0  0  0
  1  2  1  0  0  0  0
  2  3  1  0  0  0  0
  2  4  1  0  0  0  0
  4  5  1  0  0  0  0
  5  6  1  0  0  0  0
  6  7  1  0  0  0  0
  7  8  1  0  0  0  0
  7  9  1  0  0  0  0
  9 10  1  0  0  0  0
 10 11  1  0  0  0  0
 11 12  1  0  0  0  0
 12 13  1  0  0  0  0
 12 14  1  0  0  0  0
 14 15  1  0  0  0  0
 15 16  1  0  0  0  0
 16 17  1  0  0  0  0
 17 18  1  0  0  0  0
 17 19  1  0  0  0  0
 19 20  1  0  0  0  0
 20 21  1  0  0  0  0
 21 22  4  0  0  0  0
 22 23  1  0  0  0  0
 22 24  4  0  0  0  0
 24 25  1  0  0  0  0
 25 26  1  0  0  0  0
 26 27  2  0  0  0  0
 26 28  1  0  0  0  0
 28 29  2  0  0  0  0
 29 30  1  0  0  0  0
 29 31  1  0  0  0  0
 31 32  2  0  0  0  0
 32 33  1  0  0  0  0
 33 34  2  0  0  0  0
 34 35  1  0  0  0  0
 34 36  1  0  0  0  0
 36 37  2  0  0  0  0
 37 38  1  0  0  0  0
 38 39  2  0  0  0  0
 39 40  1  0  0  0  0
 39 41  1  0  0  0  0
 41 42  1  0  0  0  0
 42 43  1  0  0  0  0
 43 44  1  0  0  0  0
 38 44  1  0  0  0  0
 44 45  1  0  0  0  0
 44 46  1  0  0  0  0
 24 47  4  0  0  0  0
 47 48  1  0  0  0  0
 47 49  4  0  0  0  0
 49 50  1  0  0  0  0
 49 51  4  0  0  0  0
 21 51  4  0  0  0  0
 51 52  1  0  0  0  0
 17 52  1  0  0  0  0
M  END
>  <ID>
2721

>  <PREFERRED_NAME>
tretinoin tocoferil

>  <CAS_RN>
40516-48-1

>  <SYNONYMS>
tretinoin tocoferil
tocoretinate
olcenon

>  <URL>
http://drugcentral.org/drugcard/2721/view

$$$$
