triamcinolone hexacetonide
  -INDIGO-06102311182D

 38 42  0  0  1  0  0  0  0  0999 V2000
    3.6707   -7.4724    0.0000 C   0  0  0  0  0  0  0  0  0  0  0  0
    4.2097   -6.8479    0.0000 C   0  0  0  0  0  0  0  0  0  0  0  0
    4.8343   -7.3869    0.0000 C   0  0  0  0  0  0  0  0  0  0  0  0
    3.5852   -6.3088    0.0000 C   0  0  0  0  0  0  0  0  0  0  0  0
    4.7488   -6.2233    0.0000 C   0  0  0  0  0  0  0  0  0  0  0  0
    4.4774   -5.4442    0.0000 C   0  0  0  0  0  0  0  0  0  0  0  0
    3.6671   -5.2897    0.0000 O   0  0  0  0  0  0  0  0  0  0  0  0
    5.0165   -4.8197    0.0000 O   0  0  0  0  0  0  0  0  0  0  0  0
    4.7452   -4.0406    0.0000 C   0  0  0  0  0  0  0  0  0  0  0  0
    5.2398   -3.4675    0.0000 C   0  0  0  0  0  0  0  0  0  0  0  0
    6.1412   -3.7356    0.0000 O   0  0  0  0  0  0  0  0  0  0  0  0
    5.1791   -2.6791    0.0000 C   0  0  1  0  0  0  0  0  0  0  0  0
    4.4669   -3.0956    0.0000 O   0  0  0  0  0  0  0  0  0  0  0  0
    3.8507   -2.5471    0.0000 C   0  0  0  0  0  0  0  0  0  0  0  0
    3.3696   -3.2172    0.0000 C   0  0  0  0  0  0  0  0  0  0  0  0
    3.1339   -2.1386    0.0000 C   0  0  0  0  0  0  0  0  0  0  0  0
    4.1820   -1.7915    0.0000 O   0  0  0  0  0  0  0  0  0  0  0  0
    5.0030   -1.8731    0.0000 C   0  0  2  0  0  0  0  0  0  0  0  0
    5.7151   -1.4566    0.0000 C   0  0  0  0  0  0  0  0  0  0  0  0
    6.3313   -2.0052    0.0000 C   0  0  1  0  0  0  0  0  0  0  0  0
    7.1513   -1.9143    0.0000 C   0  0  2  0  0  0  0  0  0  0  0  0
    7.4826   -1.1588    0.0000 C   0  0  0  0  0  0  0  0  0  0  0  0
    8.3026   -1.0679    0.0000 C   0  0  0  0  0  0  0  0  0  0  0  0
    8.7913   -1.7326    0.0000 C   0  0  0  0  0  0  0  0  0  0  0  0
    9.6112   -1.6417    0.0000 C   0  0  0  0  0  0  0  0  0  0  0  0
   10.0999   -2.3064    0.0000 C   0  0  0  0  0  0  0  0  0  0  0  0
   10.9199   -2.2156    0.0000 O   0  0  0  0  0  0  0  0  0  0  0  0
    9.7686   -3.0620    0.0000 C   0  0  0  0  0  0  0  0  0  0  0  0
    8.9486   -3.1529    0.0000 C   0  0  0  0  0  0  0  0  0  0  0  0
    8.4600   -2.4882    0.0000 C   0  0  1  0  0  0  0  0  0  0  0  0
    7.7826   -3.1909    0.0000 C   0  0  0  0  0  0  0  0  0  0  0  0
    7.6400   -2.5790    0.0000 C   0  0  2  0  0  0  0  0  0  0  0  0
    8.1286   -3.2437    0.0000 F   0  0  0  0  0  0  0  0  0  0  0  0
    7.3087   -3.3346    0.0000 C   0  0  1  0  0  0  0  0  0  0  0  0
    7.7973   -3.9993    0.0000 O   0  0  0  0  0  0  0  0  0  0  0  0
    6.4887   -3.4254    0.0000 C   0  0  0  0  0  0  0  0  0  0  0  0
    6.0000   -2.7607    0.0000 C   0  0  2  0  0  0  0  0  0  0  0  0
    5.5915   -3.4775    0.0000 C   0  0  0  0  0  0  0  0  0  0  0  0
  1  2  1  0  0  0  0
  2  3  1  0  0  0  0
  2  4  1  0  0  0  0
  2  5  1  0  0  0  0
  5  6  1  0  0  0  0
  6  7  2  0  0  0  0
  6  8  1  0  0  0  0
  8  9  1  0  0  0  0
  9 10  1  0  0  0  0
 10 11  2  0  0  0  0
 12 10  1  1  0  0  0
 12 13  1  0  0  0  0
 13 14  1  0  0  0  0
 14 15  1  0  0  0  0
 14 16  1  0  0  0  0
 14 17  1  0  0  0  0
 18 17  1  6  0  0  0
 12 18  1  0  0  0  0
 18 19  1  0  0  0  0
 20 19  1  1  0  0  0
 20 21  1  0  0  0  0
 21 22  1  6  0  0  0
 22 23  1  0  0  0  0
 23 24  1  0  0  0  0
 24 25  2  0  0  0  0
 25 26  1  0  0  0  0
 26 27  2  0  0  0  0
 26 28  1  0  0  0  0
 28 29  2  0  0  0  0
 29 30  1  0  0  0  0
 24 30  1  0  0  0  0
 30 31  1  1  0  0  0
 30 32  1  0  0  0  0
 21 32  1  0  0  0  0
 32 33  1  6  0  0  0
 32 34  1  0  0  0  0
 34 35  1  1  0  0  0
 34 36  1  0  0  0  0
 36 37  1  0  0  0  0
 12 37  1  0  0  0  0
 20 37  1  0  0  0  0
 37 38  1  1  0  0  0
M  END
>  <ID>
4976

>  <PREFERRED_NAME>
triamcinolone hexacetonide

>  <CAS_RN>
5611-51-8

>  <SYNONYMS>
triamcinolone hexacetonide
aristospan
hexatrione
CL 34433
CL-34433

>  <URL>
http://drugcentral.org/drugcard/4976/view

$$$$
