trimethidinium
  -INDIGO-06102311102D

 19 20  0  0  0  0  0  0  0  0999 V2000
    2.0726    0.4693    0.0000 C   0  0  0  0  0  0  0  0  0  0  0  0
    1.3941   -0.0001    0.0000 C   0  0  0  0  0  0  0  0  0  0  0  0
    2.0726   -0.4695    0.0000 C   0  0  0  0  0  0  0  0  0  0  0  0
    1.1624    0.9268    0.0000 C   0  0  0  0  0  0  0  0  0  0  0  0
    0.5174    0.4124    0.0000 C   0  0  0  0  0  0  0  0  0  0  0  0
    0.5174   -0.4126    0.0000 C   0  0  0  0  0  0  0  0  0  0  0  0
    1.1624   -0.9270    0.0000 C   0  0  0  0  0  0  0  0  0  0  0  0
    0.9788   -1.7313    0.0000 C   0  0  0  0  0  0  0  0  0  0  0  0
    1.9667   -0.7434    0.0000 C   0  0  0  0  0  0  0  0  0  0  0  0
    2.3247   -0.0001    0.0000 N   0  0  0  0  0  0  0  0  0  0  0  0
    2.9697   -0.5145    0.0000 C   0  0  0  0  0  0  0  0  0  0  0  0
    2.9697    0.5143    0.0000 C   0  0  0  0  0  0  0  0  0  0  0  0
    3.7377    0.2129    0.0000 C   0  0  0  0  0  0  0  0  0  0  0  0
    3.8606   -0.6029    0.0000 C   0  0  0  0  0  0  0  0  0  0  0  0
    4.6286   -0.9043    0.0000 N   0  0  0  0  0  0  0  0  0  0  0  0
    5.3966   -1.2057    0.0000 C   0  0  0  0  0  0  0  0  0  0  0  0
    4.3272   -1.6723    0.0000 C   0  0  0  0  0  0  0  0  0  0  0  0
    4.9300   -0.1364    0.0000 C   0  0  0  0  0  0  0  0  0  0  0  0
    1.9667    0.7432    0.0000 C   0  0  0  0  0  0  0  0  0  0  0  0
  1  2  1  0  0  0  0
  2  3  1  0  0  0  0
  2  4  1  0  0  0  0
  4  5  1  0  0  0  0
  5  6  1  0  0  0  0
  6  7  1  0  0  0  0
  2  7  1  0  0  0  0
  7  8  1  0  0  0  0
  7  9  1  0  0  0  0
  9 10  1  0  0  0  0
 10 11  1  0  0  0  0
 10 12  1  0  0  0  0
 12 13  1  0  0  0  0
 13 14  1  0  0  0  0
 14 15  1  0  0  0  0
 15 16  1  0  0  0  0
 15 17  1  0  0  0  0
 15 18  1  0  0  0  0
 10 19  1  0  0  0  0
  4 19  1  0  0  0  0
M  CHG  2  10   1  15   1
M  END
>  <ID>
3845

>  <PREFERRED_NAME>
trimethidinium

>  <CAS_RN>
2624-50-2

>  <SYNONYMS>
trimethidinium
trimethidinium diiodide
camphonium
trimethidinium methosulfate

>  <URL>
http://drugcentral.org/drugcard/3845/view

$$$$
