tripamide
  -INDIGO-06102311062D

 24 27  0  0  1  0  0  0  0  0999 V2000
   -5.3945   -1.0164    0.0000 N   0  0  0  0  0  0  0  0  0  0  0  0
   -4.9820   -0.3020    0.0000 S   0  0  0  0  0  0  0  0  0  0  0  0
   -4.2676   -0.7145    0.0000 O   0  0  0  0  0  0  0  0  0  0  0  0
   -5.6965    0.1105    0.0000 O   0  0  0  0  0  0  0  0  0  0  0  0
   -4.5695    0.4125    0.0000 C   0  0  0  0  0  0  0  0  0  0  0  0
   -4.9820    1.1270    0.0000 C   0  0  0  0  0  0  0  0  0  0  0  0
   -5.8070    1.1270    0.0000 Cl  0  0  0  0  0  0  0  0  0  0  0  0
   -4.5695    1.8414    0.0000 C   0  0  0  0  0  0  0  0  0  0  0  0
   -3.7445    1.8414    0.0000 C   0  0  0  0  0  0  0  0  0  0  0  0
   -3.3320    1.1270    0.0000 C   0  0  0  0  0  0  0  0  0  0  0  0
   -3.7445    0.4125    0.0000 C   0  0  0  0  0  0  0  0  0  0  0  0
   -2.5070    1.1270    0.0000 C   0  0  0  0  0  0  0  0  0  0  0  0
   -2.0945    1.8414    0.0000 O   0  0  0  0  0  0  0  0  0  0  0  0
   -2.0945    0.4125    0.0000 N   0  0  0  0  0  0  0  0  0  0  0  0
   -1.2695    0.4125    0.0000 N   0  0  0  0  0  0  0  0  0  0  0  0
   -0.7846   -0.2549    0.0000 C   0  0  0  0  0  0  0  0  0  0  0  0
    0.0000    0.0000    0.0000 C   0  0  1  0  0  0  0  0  0  0  0  0
    0.7145   -0.4125    0.0000 C   0  0  1  0  0  0  0  0  0  0  0  0
    1.4289    0.0000    0.0000 C   0  0  0  0  0  0  0  0  0  0  0  0
    1.4289    0.8250    0.0000 C   0  0  0  0  0  0  0  0  0  0  0  0
    0.7145    1.2375    0.0000 C   0  0  2  0  0  0  0  0  0  0  0  0
    0.5082    0.4125    0.0000 C   0  0  0  0  0  0  0  0  0  0  0  0
    0.0000    0.8250    0.0000 C   0  0  1  0  0  0  0  0  0  0  0  0
   -0.7846    1.0799    0.0000 C   0  0  0  0  0  0  0  0  0  0  0  0
  1  2  1  0  0  0  0
  2  3  2  0  0  0  0
  2  4  2  0  0  0  0
  2  5  1  0  0  0  0
  5  6  4  0  0  0  0
  6  7  1  0  0  0  0
  6  8  4  0  0  0  0
  8  9  4  0  0  0  0
  9 10  4  0  0  0  0
 10 11  4  0  0  0  0
  5 11  4  0  0  0  0
 10 12  1  0  0  0  0
 12 13  2  0  0  0  0
 12 14  1  0  0  0  0
 14 15  1  0  0  0  0
 15 16  1  0  0  0  0
 17 16  1  6  0  0  0
 17 18  1  0  0  0  0
 18 19  1  0  0  0  0
 19 20  1  0  0  0  0
 20 21  1  0  0  0  0
 21 22  1  1  0  0  0
 18 22  1  1  0  0  0
 21 23  1  0  0  0  0
 17 23  1  0  0  0  0
 23 24  1  6  0  0  0
 15 24  1  0  0  0  0
M  END
>  <ID>
2760

>  <PREFERRED_NAME>
tripamide

>  <CAS_RN>
73803-48-2

>  <SYNONYMS>
tripamide
E614
normonal
toripamide

>  <URL>
http://drugcentral.org/drugcard/2760/view

$$$$
