triparanol
  -INDIGO-06102311062D

 31 33  0  0  0  0  0  0  0  0999 V2000
   -4.6480   -1.9520    0.0000 C   0  0  0  0  0  0  0  0  0  0  0  0
   -3.8230   -1.9520    0.0000 C   0  0  0  0  0  0  0  0  0  0  0  0
   -3.4105   -2.6664    0.0000 N   0  0  0  0  0  0  0  0  0  0  0  0
   -3.8230   -3.3809    0.0000 C   0  0  0  0  0  0  0  0  0  0  0  0
   -4.6480   -3.3809    0.0000 C   0  0  0  0  0  0  0  0  0  0  0  0
   -2.5855   -2.6664    0.0000 C   0  0  0  0  0  0  0  0  0  0  0  0
   -2.1730   -3.3809    0.0000 C   0  0  0  0  0  0  0  0  0  0  0  0
   -1.3480   -3.3809    0.0000 O   0  0  0  0  0  0  0  0  0  0  0  0
   -0.9355   -4.0954    0.0000 C   0  0  0  0  0  0  0  0  0  0  0  0
   -0.1105   -4.0954    0.0000 C   0  0  0  0  0  0  0  0  0  0  0  0
    0.3020   -4.8099    0.0000 C   0  0  0  0  0  0  0  0  0  0  0  0
   -0.1105   -5.5243    0.0000 C   0  0  0  0  0  0  0  0  0  0  0  0
   -0.9355   -5.5243    0.0000 C   0  0  0  0  0  0  0  0  0  0  0  0
   -1.3480   -4.8099    0.0000 C   0  0  0  0  0  0  0  0  0  0  0  0
    0.3020   -6.2388    0.0000 C   0  0  0  0  0  0  0  0  0  0  0  0
   -0.4125   -6.6513    0.0000 O   0  0  0  0  0  0  0  0  0  0  0  0
    0.7145   -6.9533    0.0000 C   0  0  0  0  0  0  0  0  0  0  0  0
    0.3020   -7.6677    0.0000 C   0  0  0  0  0  0  0  0  0  0  0  0
    0.7145   -8.3822    0.0000 C   0  0  0  0  0  0  0  0  0  0  0  0
    0.3020   -9.0967    0.0000 C   0  0  0  0  0  0  0  0  0  0  0  0
   -0.5230   -9.0967    0.0000 C   0  0  0  0  0  0  0  0  0  0  0  0
   -0.9355   -9.8112    0.0000 Cl  0  0  0  0  0  0  0  0  0  0  0  0
   -0.9355   -8.3822    0.0000 C   0  0  0  0  0  0  0  0  0  0  0  0
   -0.5230   -7.6677    0.0000 C   0  0  0  0  0  0  0  0  0  0  0  0
    1.0164   -5.8263    0.0000 C   0  0  0  0  0  0  0  0  0  0  0  0
    1.0164   -5.0013    0.0000 C   0  0  0  0  0  0  0  0  0  0  0  0
    1.7309   -4.5888    0.0000 C   0  0  0  0  0  0  0  0  0  0  0  0
    2.4454   -5.0013    0.0000 C   0  0  0  0  0  0  0  0  0  0  0  0
    3.1599   -4.5888    0.0000 C   0  0  0  0  0  0  0  0  0  0  0  0
    2.4454   -5.8263    0.0000 C   0  0  0  0  0  0  0  0  0  0  0  0
    1.7309   -6.2388    0.0000 C   0  0  0  0  0  0  0  0  0  0  0  0
  1  2  1  0  0  0  0
  2  3  1  0  0  0  0
  3  4  1  0  0  0  0
  4  5  1  0  0  0  0
  3  6  1  0  0  0  0
  6  7  1  0  0  0  0
  7  8  1  0  0  0  0
  8  9  1  0  0  0  0
  9 10  4  0  0  0  0
 10 11  4  0  0  0  0
 11 12  4  0  0  0  0
 12 13  4  0  0  0  0
 13 14  4  0  0  0  0
  9 14  4  0  0  0  0
 12 15  1  0  0  0  0
 15 16  1  0  0  0  0
 15 17  1  0  0  0  0
 17 18  1  0  0  0  0
 18 19  4  0  0  0  0
 19 20  4  0  0  0  0
 20 21  4  0  0  0  0
 21 22  1  0  0  0  0
 21 23  4  0  0  0  0
 23 24  4  0  0  0  0
 18 24  4  0  0  0  0
 15 25  1  0  0  0  0
 25 26  4  0  0  0  0
 26 27  4  0  0  0  0
 27 28  4  0  0  0  0
 28 29  1  0  0  0  0
 28 30  4  0  0  0  0
 30 31  4  0  0  0  0
 25 31  4  0  0  0  0
M  END
>  <ID>
2761

>  <PREFERRED_NAME>
triparanol

>  <CAS_RN>
78-41-1

>  <SYNONYMS>
triparanol
clotrox
metasclene
metasqualene
trianel
triparin
tropalin

>  <URL>
http://drugcentral.org/drugcard/2761/view

$$$$
