triptorelin
  -INDIGO-06102311072D

 95102  0  0  1  0  0  0  0  0999 V2000
    2.3224   -5.4491    0.0000 C   0  0  0  0  0  0  0  0  0  0  0  0
    2.7349   -4.7346    0.0000 C   0  0  0  0  0  0  0  0  0  0  0  0
    3.5599   -4.7346    0.0000 C   0  0  0  0  0  0  0  0  0  0  0  0
    2.3224   -4.0201    0.0000 C   0  0  0  0  0  0  0  0  0  0  0  0
    2.7349   -3.3057    0.0000 C   0  0  2  0  0  0  0  0  0  0  0  0
    2.3224   -2.5912    0.0000 N   0  0  0  0  0  0  0  0  0  0  0  0
    1.4974   -2.5912    0.0000 C   0  0  0  0  0  0  0  0  0  0  0  0
    1.0849   -3.3057    0.0000 O   0  0  0  0  0  0  0  0  0  0  0  0
    1.0849   -1.8767    0.0000 C   0  0  1  0  0  0  0  0  0  0  0  0
    1.4974   -1.1623    0.0000 C   0  0  0  0  0  0  0  0  0  0  0  0
    2.3224   -1.1623    0.0000 C   0  0  0  0  0  0  0  0  0  0  0  0
    2.8073   -1.8297    0.0000 C   0  0  0  0  0  0  0  0  0  0  0  0
    3.5919   -1.5748    0.0000 N   0  0  0  0  0  0  0  0  0  0  0  0
    3.5919   -0.7498    0.0000 C   0  0  0  0  0  0  0  0  0  0  0  0
    2.8073   -0.4948    0.0000 C   0  0  0  0  0  0  0  0  0  0  0  0
    2.6358    0.3121    0.0000 C   0  0  0  0  0  0  0  0  0  0  0  0
    3.2489    0.8642    0.0000 C   0  0  0  0  0  0  0  0  0  0  0  0
    4.0335    0.6092    0.0000 C   0  0  0  0  0  0  0  0  0  0  0  0
    4.2050   -0.1977    0.0000 C   0  0  0  0  0  0  0  0  0  0  0  0
    0.2599   -1.8767    0.0000 N   0  0  0  0  0  0  0  0  0  0  0  0
   -0.1526   -1.1623    0.0000 C   0  0  0  0  0  0  0  0  0  0  0  0
    0.2599   -0.4478    0.0000 O   0  0  0  0  0  0  0  0  0  0  0  0
   -0.9776   -1.1623    0.0000 C   0  0  2  0  0  0  0  0  0  0  0  0
   -1.3901   -1.8767    0.0000 C   0  0  0  0  0  0  0  0  0  0  0  0
   -0.9776   -2.5912    0.0000 C   0  0  0  0  0  0  0  0  0  0  0  0
   -0.1526   -2.5912    0.0000 C   0  0  0  0  0  0  0  0  0  0  0  0
    0.2599   -3.3057    0.0000 C   0  0  0  0  0  0  0  0  0  0  0  0
   -0.1526   -4.0201    0.0000 C   0  0  0  0  0  0  0  0  0  0  0  0
    0.2599   -4.7346    0.0000 O   0  0  0  0  0  0  0  0  0  0  0  0
   -0.9776   -4.0201    0.0000 C   0  0  0  0  0  0  0  0  0  0  0  0
   -1.3901   -3.3057    0.0000 C   0  0  0  0  0  0  0  0  0  0  0  0
   -1.3901   -0.4478    0.0000 N   0  0  0  0  0  0  0  0  0  0  0  0
   -2.2151   -0.4478    0.0000 C   0  0  0  0  0  0  0  0  0  0  0  0
   -2.6276   -1.1623    0.0000 O   0  0  0  0  0  0  0  0  0  0  0  0
   -2.6276    0.2667    0.0000 C   0  0  2  0  0  0  0  0  0  0  0  0
   -2.2151    0.9811    0.0000 C   0  0  0  0  0  0  0  0  0  0  0  0
   -1.3901    0.9811    0.0000 O   0  0  0  0  0  0  0  0  0  0  0  0
   -3.4526    0.2667    0.0000 N   0  0  0  0  0  0  0  0  0  0  0  0
   -3.8651    0.9811    0.0000 C   0  0  0  0  0  0  0  0  0  0  0  0
   -3.4526    1.6956    0.0000 O   0  0  0  0  0  0  0  0  0  0  0  0
   -4.6901    0.9811    0.0000 C   0  0  2  0  0  0  0  0  0  0  0  0
   -5.1026    1.6956    0.0000 C   0  0  0  0  0  0  0  0  0  0  0  0
   -4.6901    2.4101    0.0000 C   0  0  0  0  0  0  0  0  0  0  0  0
   -3.8696    2.4963    0.0000 C   0  0  0  0  0  0  0  0  0  0  0  0
   -3.6981    3.3033    0.0000 N   0  0  0  0  0  0  0  0  0  0  0  0
   -4.4126    3.7158    0.0000 C   0  0  0  0  0  0  0  0  0  0  0  0
   -5.0257    3.1638    0.0000 C   0  0  0  0  0  0  0  0  0  0  0  0
   -5.8103    3.4187    0.0000 C   0  0  0  0  0  0  0  0  0  0  0  0
   -5.9818    4.2257    0.0000 C   0  0  0  0  0  0  0  0  0  0  0  0
   -5.3687    4.7777    0.0000 C   0  0  0  0  0  0  0  0  0  0  0  0
   -4.5841    4.5228    0.0000 C   0  0  0  0  0  0  0  0  0  0  0  0
   -5.1026    0.2667    0.0000 N   0  0  0  0  0  0  0  0  0  0  0  0
   -4.6901   -0.4478    0.0000 C   0  0  0  0  0  0  0  0  0  0  0  0
   -3.8651   -0.4478    0.0000 O   0  0  0  0  0  0  0  0  0  0  0  0
   -5.1026   -1.1623    0.0000 C   0  0  2  0  0  0  0  0  0  0  0  0
   -5.9276   -1.1623    0.0000 C   0  0  0  0  0  0  0  0  0  0  0  0
   -6.3401   -0.4478    0.0000 C   0  0  0  0  0  0  0  0  0  0  0  0
   -7.1606   -0.3616    0.0000 C   0  0  0  0  0  0  0  0  0  0  0  0
   -7.3321    0.4454    0.0000 N   0  0  0  0  0  0  0  0  0  0  0  0
   -6.6176    0.8579    0.0000 C   0  0  0  0  0  0  0  0  0  0  0  0
   -6.0046    0.3059    0.0000 N   0  0  0  0  0  0  0  0  0  0  0  0
   -4.6901   -1.8767    0.0000 N   0  0  0  0  0  0  0  0  0  0  0  0
   -5.1026   -2.5912    0.0000 C   0  0  0  0  0  0  0  0  0  0  0  0
   -5.9276   -2.5912    0.0000 O   0  0  0  0  0  0  0  0  0  0  0  0
   -4.6901   -3.3057    0.0000 C   0  0  2  0  0  0  0  0  0  0  0  0
   -3.8696   -3.3919    0.0000 C   0  0  0  0  0  0  0  0  0  0  0  0
   -3.6981   -4.1989    0.0000 C   0  0  0  0  0  0  0  0  0  0  0  0
   -4.4126   -4.6114    0.0000 C   0  0  0  0  0  0  0  0  0  0  0  0
   -4.4988   -5.4319    0.0000 O   0  0  0  0  0  0  0  0  0  0  0  0
   -5.0257   -4.0594    0.0000 N   0  0  0  0  0  0  0  0  0  0  0  0
    3.5599   -3.3057    0.0000 C   0  0  0  0  0  0  0  0  0  0  0  0
    3.9724   -2.5912    0.0000 O   0  0  0  0  0  0  0  0  0  0  0  0
    3.9724   -4.0201    0.0000 N   0  0  0  0  0  0  0  0  0  0  0  0
    4.7974   -4.0201    0.0000 C   0  0  1  0  0  0  0  0  0  0  0  0
    5.2099   -3.3057    0.0000 C   0  0  0  0  0  0  0  0  0  0  0  0
    6.0349   -3.3057    0.0000 C   0  0  0  0  0  0  0  0  0  0  0  0
    6.4474   -2.5912    0.0000 C   0  0  0  0  0  0  0  0  0  0  0  0
    7.2724   -2.5912    0.0000 N   0  0  0  0  0  0  0  0  0  0  0  0
    7.6849   -1.8767    0.0000 C   0  0  0  0  0  0  0  0  0  0  0  0
    7.2724   -1.1623    0.0000 N   0  0  0  0  0  0  0  0  0  0  0  0
    8.5099   -1.8767    0.0000 N   0  0  0  0  0  0  0  0  0  0  0  0
    5.2099   -4.7346    0.0000 C   0  0  0  0  0  0  0  0  0  0  0  0
    4.7974   -5.4491    0.0000 O   0  0  0  0  0  0  0  0  0  0  0  0
    6.0349   -4.7346    0.0000 N   0  0  0  0  0  0  0  0  0  0  0  0
    6.5198   -4.0672    0.0000 C   0  0  0  0  0  0  0  0  0  0  0  0
    7.3044   -4.3221    0.0000 C   0  0  0  0  0  0  0  0  0  0  0  0
    7.3044   -5.1471    0.0000 C   0  0  0  0  0  0  0  0  0  0  0  0
    6.5198   -5.4021    0.0000 C   0  0  1  0  0  0  0  0  0  0  0  0
    6.2649   -6.1867    0.0000 C   0  0  0  0  0  0  0  0  0  0  0  0
    6.8169   -6.7998    0.0000 O   0  0  0  0  0  0  0  0  0  0  0  0
    5.4579   -6.3582    0.0000 N   0  0  0  0  0  0  0  0  0  0  0  0
    5.2030   -7.1428    0.0000 C   0  0  0  0  0  0  0  0  0  0  0  0
    4.3960   -7.3144    0.0000 C   0  0  0  0  0  0  0  0  0  0  0  0
    4.1411   -8.0990    0.0000 N   0  0  0  0  0  0  0  0  0  0  0  0
    3.8440   -6.7013    0.0000 O   0  0  0  0  0  0  0  0  0  0  0  0
  1  2  1  0  0  0  0
  2  3  1  0  0  0  0
  2  4  1  0  0  0  0
  4  5  1  0  0  0  0
  5  6  1  6  0  0  0
  6  7  1  0  0  0  0
  7  8  2  0  0  0  0
  7  9  1  0  0  0  0
  9 10  1  0  0  0  0
 10 11  1  0  0  0  0
 11 12  4  0  0  0  0
 12 13  4  0  0  0  0
 13 14  4  0  0  0  0
 14 15  4  0  0  0  0
 11 15  4  0  0  0  0
 15 16  4  0  0  0  0
 16 17  4  0  0  0  0
 17 18  4  0  0  0  0
 18 19  4  0  0  0  0
 14 19  4  0  0  0  0
  9 20  1  6  0  0  0
 20 21  1  0  0  0  0
 21 22  2  0  0  0  0
 21 23  1  0  0  0  0
 23 24  1  0  0  0  0
 24 25  1  0  0  0  0
 25 26  4  0  0  0  0
 26 27  4  0  0  0  0
 27 28  4  0  0  0  0
 28 29  1  0  0  0  0
 28 30  4  0  0  0  0
 30 31  4  0  0  0  0
 25 31  4  0  0  0  0
 23 32  1  6  0  0  0
 32 33  1  0  0  0  0
 33 34  2  0  0  0  0
 33 35  1  0  0  0  0
 35 36  1  0  0  0  0
 36 37  1  0  0  0  0
 35 38  1  1  0  0  0
 38 39  1  0  0  0  0
 39 40  2  0  0  0  0
 39 41  1  0  0  0  0
 41 42  1  0  0  0  0
 42 43  1  0  0  0  0
 43 44  4  0  0  0  0
 44 45  4  0  0  0  0
 45 46  4  0  0  0  0
 46 47  4  0  0  0  0
 43 47  4  0  0  0  0
 47 48  4  0  0  0  0
 48 49  4  0  0  0  0
 49 50  4  0  0  0  0
 50 51  4  0  0  0  0
 46 51  4  0  0  0  0
 41 52  1  1  0  0  0
 52 53  1  0  0  0  0
 53 54  2  0  0  0  0
 53 55  1  0  0  0  0
 55 56  1  0  0  0  0
 56 57  1  0  0  0  0
 57 58  4  0  0  0  0
 58 59  4  0  0  0  0
 59 60  4  0  0  0  0
 60 61  4  0  0  0  0
 57 61  4  0  0  0  0
 55 62  1  1  0  0  0
 62 63  1  0  0  0  0
 63 64  2  0  0  0  0
 65 63  1  6  0  0  0
 65 66  1  0  0  0  0
 66 67  1  0  0  0  0
 67 68  1  0  0  0  0
 68 69  2  0  0  0  0
 68 70  1  0  0  0  0
 65 70  1  0  0  0  0
  5 71  1  0  0  0  0
 71 72  2  0  0  0  0
 71 73  1  0  0  0  0
 74 73  1  1  0  0  0
 74 75  1  0  0  0  0
 75 76  1  0  0  0  0
 76 77  1  0  0  0  0
 77 78  1  0  0  0  0
 78 79  1  0  0  0  0
 79 80  1  0  0  0  0
 79 81  2  0  0  0  0
 74 82  1  0  0  0  0
 82 83  2  0  0  0  0
 82 84  1  0  0  0  0
 84 85  1  0  0  0  0
 85 86  1  0  0  0  0
 86 87  1  0  0  0  0
 87 88  1  0  0  0  0
 84 88  1  0  0  0  0
 88 89  1  1  0  0  0
 89 90  2  0  0  0  0
 89 91  1  0  0  0  0
 91 92  1  0  0  0  0
 92 93  1  0  0  0  0
 93 94  1  0  0  0  0
 93 95  2  0  0  0  0
M  STY  3   1 DAT   2 DAT   3 DAT
M  SLB  3   1   1   2   2   3   3
M  SAL   1  1  59
M  SDT   1 MRV_IMPLICIT_H
M  SDD   1     0.0000    0.0000    DA    ALL  1       1
M  SED   1 IMPL_H1
M  SAL   2  1  45
M  SDT   2 MRV_IMPLICIT_H
M  SDD   2     0.0000    0.0000    DA    ALL  1       1
M  SED   2 IMPL_H1
M  SAL   3  1  13
M  SDT   3 MRV_IMPLICIT_H
M  SDD   3     0.0000    0.0000    DA    ALL  1       1
M  SED   3 IMPL_H1
M  END
>  <ID>
2968

>  <PREFERRED_NAME>
triptorelin

>  <CAS_RN>
57773-63-4

>  <SYNONYMS>
triptorelin
arvekap
triptoreline
tryptorelin
triptorelin pamoate
triptorelin acetate

>  <URL>
http://drugcentral.org/drugcard/2968/view

$$$$
