trofosfamide
  -INDIGO-06102311062D

 17 17  0  0  0  0  0  0  0  0999 V2000
   -1.9836   -1.5332    0.0000 Cl  0  0  0  0  0  0  0  0  0  0  0  0
   -1.1586   -1.5332    0.0000 C   0  0  0  0  0  0  0  0  0  0  0  0
   -0.7461   -0.8187    0.0000 C   0  0  0  0  0  0  0  0  0  0  0  0
    0.0789   -0.8187    0.0000 N   0  0  0  0  0  0  0  0  0  0  0  0
    0.4914   -1.5332    0.0000 C   0  0  0  0  0  0  0  0  0  0  0  0
    1.3164   -1.5332    0.0000 C   0  0  0  0  0  0  0  0  0  0  0  0
    1.7289   -2.2477    0.0000 Cl  0  0  0  0  0  0  0  0  0  0  0  0
    0.4914   -0.1043    0.0000 P   0  0  0  0  0  0  0  0  0  0  0  0
    1.1234   -0.6346    0.0000 O   0  0  0  0  0  0  0  0  0  0  0  0
   -0.2838    0.1779    0.0000 O   0  0  0  0  0  0  0  0  0  0  0  0
   -0.4271    0.9904    0.0000 C   0  0  0  0  0  0  0  0  0  0  0  0
    0.2049    1.5207    0.0000 C   0  0  0  0  0  0  0  0  0  0  0  0
    0.9801    1.2385    0.0000 C   0  0  0  0  0  0  0  0  0  0  0  0
    1.1234    0.4260    0.0000 N   0  0  0  0  0  0  0  0  0  0  0  0
    1.8986    0.1439    0.0000 C   0  0  0  0  0  0  0  0  0  0  0  0
    2.0419   -0.6686    0.0000 C   0  0  0  0  0  0  0  0  0  0  0  0
    2.8171   -0.9508    0.0000 Cl  0  0  0  0  0  0  0  0  0  0  0  0
  1  2  1  0  0  0  0
  2  3  1  0  0  0  0
  3  4  1  0  0  0  0
  4  5  1  0  0  0  0
  5  6  1  0  0  0  0
  6  7  1  0  0  0  0
  4  8  1  0  0  0  0
  8  9  2  0  0  0  0
  8 10  1  0  0  0  0
 10 11  1  0  0  0  0
 11 12  1  0  0  0  0
 12 13  1  0  0  0  0
 13 14  1  0  0  0  0
  8 14  1  0  0  0  0
 14 15  1  0  0  0  0
 15 16  1  0  0  0  0
 16 17  1  0  0  0  0
M  END
>  <ID>
2766

>  <PREFERRED_NAME>
trofosfamide

>  <CAS_RN>
22089-22-1

>  <SYNONYMS>
trofosfamide
ixoten
trifosfamide
trilofosfamida
trilophosphamide
triphosphamide
trisfosfamide
trofosfamid
trophosphamid
trophosphamide

>  <URL>
http://drugcentral.org/drugcard/2766/view

$$$$
