trolnitrate
  -INDIGO-06102311062D

 19 18  0  0  0  0  0  0  0  0999 V2000
    2.8579   -8.6329    0.0000 O   0  0  0  0  0  0  0  0  0  0  0  0
    2.8579   -7.8079    0.0000 N   0  0  0  0  0  0  0  0  0  0  0  0
    3.5724   -7.3954    0.0000 O   0  0  0  0  0  0  0  0  0  0  0  0
    2.1434   -7.3954    0.0000 O   0  0  0  0  0  0  0  0  0  0  0  0
    2.1434   -6.5704    0.0000 C   0  0  0  0  0  0  0  0  0  0  0  0
    1.4289   -6.1579    0.0000 C   0  0  0  0  0  0  0  0  0  0  0  0
    1.4289   -5.3329    0.0000 N   0  0  0  0  0  0  0  0  0  0  0  0
    0.7145   -4.9204    0.0000 C   0  0  0  0  0  0  0  0  0  0  0  0
    0.7145   -4.0954    0.0000 C   0  0  0  0  0  0  0  0  0  0  0  0
    0.0000   -3.6829    0.0000 O   0  0  0  0  0  0  0  0  0  0  0  0
    0.0000   -2.8579    0.0000 N   0  0  0  0  0  0  0  0  0  0  0  0
   -0.7145   -2.4454    0.0000 O   0  0  0  0  0  0  0  0  0  0  0  0
    0.7145   -2.4454    0.0000 O   0  0  0  0  0  0  0  0  0  0  0  0
    2.1434   -4.9204    0.0000 C   0  0  0  0  0  0  0  0  0  0  0  0
    2.1434   -4.0954    0.0000 C   0  0  0  0  0  0  0  0  0  0  0  0
    2.8579   -3.6829    0.0000 O   0  0  0  0  0  0  0  0  0  0  0  0
    2.8579   -2.8579    0.0000 N   0  0  0  0  0  0  0  0  0  0  0  0
    2.1434   -2.4454    0.0000 O   0  0  0  0  0  0  0  0  0  0  0  0
    3.5724   -2.4454    0.0000 O   0  0  0  0  0  0  0  0  0  0  0  0
  1  2  1  0  0  0  0
  2  3  2  0  0  0  0
  2  4  1  0  0  0  0
  4  5  1  0  0  0  0
  5  6  1  0  0  0  0
  6  7  1  0  0  0  0
  7  8  1  0  0  0  0
  8  9  1  0  0  0  0
  9 10  1  0  0  0  0
 10 11  1  0  0  0  0
 11 12  1  0  0  0  0
 11 13  2  0  0  0  0
  7 14  1  0  0  0  0
 14 15  1  0  0  0  0
 15 16  1  0  0  0  0
 16 17  1  0  0  0  0
 17 18  1  0  0  0  0
 17 19  2  0  0  0  0
M  CHG  6   1  -1   2   1  11   1  12  -1  17   1  18  -1
M  END
>  <ID>
2770

>  <PREFERRED_NAME>
trolnitrate

>  <CAS_RN>
7077-34-1

>  <SYNONYMS>
trolnitrate
trolnitrate phosphate
nitranolum
aminotrate
etamin
nitranole
nitretamine
triethanolamine trinitrate
trolnitrat

>  <URL>
http://drugcentral.org/drugcard/2770/view

$$$$
