tubocurarine
  -INDIGO-06102311062D

 45 51  0  0  1  0  0  0  0  0999 V2000
   10.7516   -0.6334    0.0000 C   0  0  0  0  0  0  0  0  0  0  0  0
   10.0421   -0.2124    0.0000 O   0  0  0  0  0  0  0  0  0  0  0  0
   10.0520    0.6126    0.0000 C   0  0  0  0  0  0  0  0  0  0  0  0
   10.7807    1.0016    0.0000 C   0  0  0  0  0  0  0  0  0  0  0  0
   10.8063    1.8484    0.0000 C   0  0  0  0  0  0  0  0  0  0  0  0
   10.1033    2.3190    0.0000 C   0  0  0  0  0  0  0  0  0  0  0  0
    9.3883    1.8694    0.0000 C   0  0  0  0  0  0  0  0  0  0  0  0
    9.3338    1.0184    0.0000 C   0  0  0  0  0  0  0  0  0  0  0  0
    8.6472    0.4818    0.0000 O   0  0  0  0  0  0  0  0  0  0  0  0
    7.7769    0.4937    0.0000 C   0  0  0  0  0  0  0  0  0  0  0  0
    6.9331    0.3980    0.0000 C   0  0  0  0  0  0  0  0  0  0  0  0
    6.4136    1.0627    0.0000 C   0  0  0  0  0  0  0  0  0  0  0  0
    5.8059    1.6701    0.0000 C   0  0  0  0  0  0  0  0  0  0  0  0
    5.4192    2.4475    0.0000 C   0  0  2  0  0  0  0  0  0  0  0  0
    5.2456    3.3151    0.0000 C   0  0  0  0  0  0  0  0  0  0  0  0
    5.7854    4.0192    0.0000 C   0  0  0  0  0  0  0  0  0  0  0  0
    6.4784    4.5409    0.0000 O   0  0  0  0  0  0  0  0  0  0  0  0
    7.2390    4.9567    0.0000 C   0  0  0  0  0  0  0  0  0  0  0  0
    7.8573    5.5421    0.0000 C   0  0  0  0  0  0  0  0  0  0  0  0
    8.6533    5.3034    0.0000 C   0  0  0  0  0  0  0  0  0  0  0  0
    8.9115    4.4881    0.0000 C   0  0  0  0  0  0  0  0  0  0  0  0
    9.5515    3.8687    0.0000 C   0  0  0  0  0  0  0  0  0  0  0  0
   10.1619    3.2106    0.0000 C   0  0  2  0  0  0  0  0  0  0  0  0
   10.9539    3.5128    0.0000 N   0  0  0  0  0  0  0  0  0  0  0  0
   11.0581    4.3312    0.0000 C   0  0  0  0  0  0  0  0  0  0  0  0
   11.6370    3.0276    0.0000 C   0  0  0  0  0  0  0  0  0  0  0  0
   11.5560    2.2084    0.0000 C   0  0  0  0  0  0  0  0  0  0  0  0
    8.2822    3.9530    0.0000 C   0  0  0  0  0  0  0  0  0  0  0  0
    7.4907    4.1529    0.0000 C   0  0  0  0  0  0  0  0  0  0  0  0
    5.4611    4.7988    0.0000 C   0  0  0  0  0  0  0  0  0  0  0  0
    5.9716    5.4469    0.0000 O   0  0  0  0  0  0  0  0  0  0  0  0
    4.6438    4.9290    0.0000 C   0  0  0  0  0  0  0  0  0  0  0  0
    4.3456    5.6982    0.0000 O   0  0  0  0  0  0  0  0  0  0  0  0
    3.5303    5.8245    0.0000 C   0  0  0  0  0  0  0  0  0  0  0  0
    4.1313    4.2861    0.0000 C   0  0  0  0  0  0  0  0  0  0  0  0
    4.4210    3.4946    0.0000 C   0  0  0  0  0  0  0  0  0  0  0  0
    3.8213    2.8987    0.0000 C   0  0  0  0  0  0  0  0  0  0  0  0
    4.0173    2.0966    0.0000 C   0  0  0  0  0  0  0  0  0  0  0  0
    4.8056    1.8743    0.0000 N   0  0  0  0  0  0  0  0  0  0  0  0
    4.6031    1.0745    0.0000 C   0  0  0  0  0  0  0  0  0  0  0  0
    5.3524    1.2565    0.0000 C   0  0  0  0  0  0  0  0  0  0  0  0
    6.7620    1.8198    0.0000 C   0  0  0  0  0  0  0  0  0  0  0  0
    7.5727    1.9447    0.0000 C   0  0  0  0  0  0  0  0  0  0  0  0
    8.0496    1.2780    0.0000 C   0  0  0  0  0  0  0  0  0  0  0  0
    8.8662    1.3956    0.0000 O   0  0  0  0  0  0  0  0  0  0  0  0
  1  2  1  0  0  0  0
  2  3  1  0  0  0  0
  3  4  4  0  0  0  0
  4  5  4  0  0  0  0
  5  6  4  0  0  0  0
  6  7  4  0  0  0  0
  7  8  4  0  0  0  0
  3  8  4  0  0  0  0
  8  9  1  0  0  0  0
  9 10  1  0  0  0  0
 10 11  4  0  0  0  0
 11 12  4  0  0  0  0
 12 13  1  0  0  0  0
 13 14  1  0  0  0  0
 14 15  1  1  0  0  0
 15 16  4  0  0  0  0
 16 17  1  0  0  0  0
 17 18  1  0  0  0  0
 18 19  4  0  0  0  0
 19 20  4  0  0  0  0
 20 21  4  0  0  0  0
 21 22  1  0  0  0  0
 22 23  1  0  0  0  0
  6 23  1  0  0  0  0
 23 24  1  6  0  0  0
 24 25  1  0  0  0  0
 24 26  1  0  0  0  0
 26 27  1  0  0  0  0
  5 27  1  0  0  0  0
 21 28  4  0  0  0  0
 28 29  4  0  0  0  0
 18 29  4  0  0  0  0
 16 30  4  0  0  0  0
 30 31  1  0  0  0  0
 30 32  4  0  0  0  0
 32 33  1  0  0  0  0
 33 34  1  0  0  0  0
 32 35  4  0  0  0  0
 35 36  4  0  0  0  0
 15 36  4  0  0  0  0
 36 37  1  0  0  0  0
 37 38  1  0  0  0  0
 38 39  1  0  0  0  0
 14 39  1  0  0  0  0
 39 40  1  0  0  0  0
 39 41  1  0  0  0  0
 12 42  4  0  0  0  0
 42 43  4  0  0  0  0
 43 44  4  0  0  0  0
 10 44  4  0  0  0  0
 44 45  1  0  0  0  0
M  CHG  1  39   1
M  END
>  <ID>
2781

>  <PREFERRED_NAME>
tubocurarine

>  <CAS_RN>
57-94-3

>  <SYNONYMS>
tubocurarine
tubocurarine chloride
(+)-Tubocurarine chloride
(+)-Tubocurarine dichloride
D-Tubocurarine
dextrotubocurarine chloride
tubocurarine hydrochloride
tubocurarine HCl

>  <URL>
http://drugcentral.org/drugcard/2781/view

$$$$
