umbralisib
  -INDIGO-06102311212D

 42 47  0  0  1  0  0  0  0  0999 V2000
   -4.0300   -2.5102    0.0000 C   0  0  0  0  0  0  0  0  0  0  0  0
   -3.2230   -2.3387    0.0000 C   0  0  1  0  0  0  0  0  0  0  0  0
   -2.6709   -2.9518    0.0000 C   0  0  0  0  0  0  0  0  0  0  0  0
   -2.9259   -3.7364    0.0000 C   0  0  0  0  0  0  0  0  0  0  0  0
   -2.3739   -4.3495    0.0000 C   0  0  0  0  0  0  0  0  0  0  0  0
   -2.6288   -5.1341    0.0000 O   0  0  0  0  0  0  0  0  0  0  0  0
   -1.5669   -4.1780    0.0000 C   0  0  0  0  0  0  0  0  0  0  0  0
   -1.3119   -3.3933    0.0000 C   0  0  0  0  0  0  0  0  0  0  0  0
   -1.8640   -2.7802    0.0000 O   0  0  0  0  0  0  0  0  0  0  0  0
   -0.5050   -3.2218    0.0000 C   0  0  0  0  0  0  0  0  0  0  0  0
    0.0471   -3.8349    0.0000 C   0  0  0  0  0  0  0  0  0  0  0  0
   -0.2079   -4.6195    0.0000 C   0  0  0  0  0  0  0  0  0  0  0  0
   -1.0149   -4.7910    0.0000 C   0  0  0  0  0  0  0  0  0  0  0  0
    0.3442   -5.2326    0.0000 F   0  0  0  0  0  0  0  0  0  0  0  0
   -3.7329   -3.9079    0.0000 C   0  0  0  0  0  0  0  0  0  0  0  0
   -3.9878   -4.6925    0.0000 C   0  0  0  0  0  0  0  0  0  0  0  0
   -4.7948   -4.8641    0.0000 C   0  0  0  0  0  0  0  0  0  0  0  0
   -5.3468   -4.2510    0.0000 C   0  0  0  0  0  0  0  0  0  0  0  0
   -5.0919   -3.4663    0.0000 C   0  0  0  0  0  0  0  0  0  0  0  0
   -4.2849   -3.2948    0.0000 C   0  0  0  0  0  0  0  0  0  0  0  0
   -5.0497   -5.6487    0.0000 F   0  0  0  0  0  0  0  0  0  0  0  0
   -2.9680   -1.5540    0.0000 N   0  0  0  0  0  0  0  0  0  0  0  0
   -2.1834   -1.2991    0.0000 C   0  0  0  0  0  0  0  0  0  0  0  0
   -1.4689   -1.7116    0.0000 N   0  0  0  0  0  0  0  0  0  0  0  0
   -0.7545   -1.2991    0.0000 C   0  0  0  0  0  0  0  0  0  0  0  0
   -0.7545   -0.4741    0.0000 N   0  0  0  0  0  0  0  0  0  0  0  0
   -1.4689   -0.0616    0.0000 C   0  0  0  0  0  0  0  0  0  0  0  0
   -2.1834   -0.4741    0.0000 C   0  0  0  0  0  0  0  0  0  0  0  0
   -2.9680   -0.2192    0.0000 C   0  0  0  0  0  0  0  0  0  0  0  0
   -3.4530   -0.8866    0.0000 N   0  0  0  0  0  0  0  0  0  0  0  0
   -3.2230    0.5655    0.0000 C   0  0  0  0  0  0  0  0  0  0  0  0
   -4.0300    0.7370    0.0000 C   0  0  0  0  0  0  0  0  0  0  0  0
   -4.2849    1.5216    0.0000 C   0  0  0  0  0  0  0  0  0  0  0  0
   -3.7329    2.1347    0.0000 C   0  0  0  0  0  0  0  0  0  0  0  0
   -2.9259    1.9632    0.0000 C   0  0  0  0  0  0  0  0  0  0  0  0
   -2.6709    1.1785    0.0000 C   0  0  0  0  0  0  0  0  0  0  0  0
   -3.9878    2.9193    0.0000 O   0  0  0  0  0  0  0  0  0  0  0  0
   -3.4358    3.5324    0.0000 C   0  0  0  0  0  0  0  0  0  0  0  0
   -3.6907    4.3170    0.0000 C   0  0  0  0  0  0  0  0  0  0  0  0
   -2.6288    3.3609    0.0000 C   0  0  0  0  0  0  0  0  0  0  0  0
   -5.0919    1.6931    0.0000 F   0  0  0  0  0  0  0  0  0  0  0  0
   -1.4689    0.7634    0.0000 N   0  0  0  0  0  0  0  0  0  0  0  0
  2  1  1  6  0  0  0
  2  3  1  0  0  0  0
  3  4  2  0  0  0  0
  4  5  1  0  0  0  0
  5  6  2  0  0  0  0
  5  7  1  0  0  0  0
  7  8  4  0  0  0  0
  8  9  1  0  0  0  0
  3  9  1  0  0  0  0
  8 10  4  0  0  0  0
 10 11  4  0  0  0  0
 11 12  4  0  0  0  0
 12 13  4  0  0  0  0
  7 13  4  0  0  0  0
 12 14  1  0  0  0  0
  4 15  1  0  0  0  0
 15 16  4  0  0  0  0
 16 17  4  0  0  0  0
 17 18  4  0  0  0  0
 18 19  4  0  0  0  0
 19 20  4  0  0  0  0
 15 20  4  0  0  0  0
 17 21  1  0  0  0  0
  2 22  1  0  0  0  0
 22 23  4  0  0  0  0
 23 24  4  0  0  0  0
 24 25  4  0  0  0  0
 25 26  4  0  0  0  0
 26 27  4  0  0  0  0
 27 28  4  0  0  0  0
 23 28  4  0  0  0  0
 28 29  4  0  0  0  0
 29 30  4  0  0  0  0
 22 30  4  0  0  0  0
 29 31  1  0  0  0  0
 31 32  4  0  0  0  0
 32 33  4  0  0  0  0
 33 34  4  0  0  0  0
 34 35  4  0  0  0  0
 35 36  4  0  0  0  0
 31 36  4  0  0  0  0
 34 37  1  0  0  0  0
 37 38  1  0  0  0  0
 38 39  1  0  0  0  0
 38 40  1  0  0  0  0
 33 41  1  0  0  0  0
 27 42  1  0  0  0  0
M  END
>  <ID>
5441

>  <PREFERRED_NAME>
umbralisib

>  <CAS_RN>
1532533-67-7

>  <SYNONYMS>
umbralisib
umbralisib tosylate
ukoniq
TGR-1202

>  <URL>
http://drugcentral.org/drugcard/5441/view

$$$$
