umeclidinium
  -INDIGO-06102311152D

 32 36  0  0  0  0  0  0  0  0999 V2000
   -0.0144   -1.0709    0.0000 O   0  0  0  0  0  0  0  0  0  0  0  0
    0.8106   -1.0709    0.0000 C   0  0  0  0  0  0  0  0  0  0  0  0
    0.8106   -1.8959    0.0000 C   0  0  0  0  0  0  0  0  0  0  0  0
    1.5251   -2.3084    0.0000 C   0  0  0  0  0  0  0  0  0  0  0  0
    1.5251   -3.1334    0.0000 C   0  0  0  0  0  0  0  0  0  0  0  0
    0.8106   -3.5459    0.0000 C   0  0  0  0  0  0  0  0  0  0  0  0
    0.0962   -3.1334    0.0000 C   0  0  0  0  0  0  0  0  0  0  0  0
    0.0962   -2.3084    0.0000 C   0  0  0  0  0  0  0  0  0  0  0  0
    1.6356   -1.0709    0.0000 C   0  0  0  0  0  0  0  0  0  0  0  0
    2.0481   -0.3565    0.0000 C   0  0  0  0  0  0  0  0  0  0  0  0
    2.8731   -0.3565    0.0000 C   0  0  0  0  0  0  0  0  0  0  0  0
    3.2856   -1.0709    0.0000 C   0  0  0  0  0  0  0  0  0  0  0  0
    2.8731   -1.7854    0.0000 C   0  0  0  0  0  0  0  0  0  0  0  0
    2.0481   -1.7854    0.0000 C   0  0  0  0  0  0  0  0  0  0  0  0
    0.8106   -0.2459    0.0000 C   0  0  0  0  0  0  0  0  0  0  0  0
    0.0962    0.1666    0.0000 C   0  0  0  0  0  0  0  0  0  0  0  0
    0.0962    0.9916    0.0000 C   0  0  0  0  0  0  0  0  0  0  0  0
    0.8106    1.4041    0.0000 N   0  0  0  0  0  0  0  0  0  0  0  0
    0.8106    2.2291    0.0000 C   0  0  0  0  0  0  0  0  0  0  0  0
    0.0962    2.6416    0.0000 C   0  0  0  0  0  0  0  0  0  0  0  0
    0.0962    3.4666    0.0000 O   0  0  0  0  0  0  0  0  0  0  0  0
   -0.6183    3.8791    0.0000 C   0  0  0  0  0  0  0  0  0  0  0  0
   -0.6183    4.7041    0.0000 C   0  0  0  0  0  0  0  0  0  0  0  0
   -1.3328    5.1166    0.0000 C   0  0  0  0  0  0  0  0  0  0  0  0
   -1.3328    5.9416    0.0000 C   0  0  0  0  0  0  0  0  0  0  0  0
   -0.6183    6.3541    0.0000 C   0  0  0  0  0  0  0  0  0  0  0  0
    0.0962    5.9416    0.0000 C   0  0  0  0  0  0  0  0  0  0  0  0
    0.0962    5.1166    0.0000 C   0  0  0  0  0  0  0  0  0  0  0  0
    1.5251    0.9916    0.0000 C   0  0  0  0  0  0  0  0  0  0  0  0
    1.5251    0.1666    0.0000 C   0  0  0  0  0  0  0  0  0  0  0  0
    0.9481    0.8541    0.0000 C   0  0  0  0  0  0  0  0  0  0  0  0
    0.9481    0.3041    0.0000 C   0  0  0  0  0  0  0  0  0  0  0  0
  1  2  1  0  0  0  0
  2  3  1  0  0  0  0
  3  4  4  0  0  0  0
  4  5  4  0  0  0  0
  5  6  4  0  0  0  0
  6  7  4  0  0  0  0
  7  8  4  0  0  0  0
  3  8  4  0  0  0  0
  2  9  1  0  0  0  0
  9 10  4  0  0  0  0
 10 11  4  0  0  0  0
 11 12  4  0  0  0  0
 12 13  4  0  0  0  0
 13 14  4  0  0  0  0
  9 14  4  0  0  0  0
  2 15  1  0  0  0  0
 15 16  1  0  0  0  0
 16 17  1  0  0  0  0
 17 18  1  0  0  0  0
 18 19  1  0  0  0  0
 19 20  1  0  0  0  0
 20 21  1  0  0  0  0
 21 22  1  0  0  0  0
 22 23  1  0  0  0  0
 23 24  4  0  0  0  0
 24 25  4  0  0  0  0
 25 26  4  0  0  0  0
 26 27  4  0  0  0  0
 27 28  4  0  0  0  0
 23 28  4  0  0  0  0
 18 29  1  0  0  0  0
 29 30  1  0  0  0  0
 15 30  1  0  0  0  0
 18 31  1  0  0  0  0
 31 32  1  0  0  0  0
 15 32  1  0  0  0  0
M  CHG  1  18   1
M  END
>  <ID>
4816

>  <PREFERRED_NAME>
umeclidinium

>  <CAS_RN>
869113-09-7

>  <SYNONYMS>
umeclidinium
incruse
GSK573719A
umeclidinium bromide

>  <URL>
http://drugcentral.org/drugcard/4816/view

$$$$
