unoprostone isopropyl
  -INDIGO-06102311062D

 30 30  0  0  1  0  0  0  0  0999 V2000
   -0.6162   -5.1022    0.0000 C   0  0  0  0  0  0  0  0  0  0  0  0
   -1.2107   -5.6743    0.0000 C   0  0  0  0  0  0  0  0  0  0  0  0
   -1.0126   -6.4751    0.0000 C   0  0  0  0  0  0  0  0  0  0  0  0
   -0.2199   -6.7039    0.0000 C   0  0  0  0  0  0  0  0  0  0  0  0
    0.3745   -6.1319    0.0000 C   0  0  0  0  0  0  0  0  0  0  0  0
    1.1672   -6.3607    0.0000 C   0  0  0  0  0  0  0  0  0  0  0  0
    1.7617   -5.7887    0.0000 C   0  0  0  0  0  0  0  0  0  0  0  0
    2.5543   -6.0175    0.0000 C   0  0  0  0  0  0  0  0  0  0  0  0
    2.7524   -6.8183    0.0000 O   0  0  0  0  0  0  0  0  0  0  0  0
    3.1488   -5.4455    0.0000 C   0  0  0  0  0  0  0  0  0  0  0  0
    3.9414   -5.6743    0.0000 C   0  0  0  0  0  0  0  0  0  0  0  0
    4.5359   -5.1022    0.0000 C   0  0  1  0  0  0  0  0  0  0  0  0
    4.4225   -4.2851    0.0000 C   0  0  2  0  0  0  0  0  0  0  0  0
    3.6948   -3.8965    0.0000 O   0  0  0  0  0  0  0  0  0  0  0  0
    5.1647   -3.9247    0.0000 C   0  0  0  0  0  0  0  0  0  0  0  0
    5.7367   -4.5192    0.0000 C   0  0  2  0  0  0  0  0  0  0  0  0
    6.5539   -4.4058    0.0000 O   0  0  0  0  0  0  0  0  0  0  0  0
    5.3481   -5.2469    0.0000 C   0  0  2  0  0  0  0  0  0  0  0  0
    5.7084   -5.9891    0.0000 C   0  0  0  0  0  0  0  0  0  0  0  0
    5.2459   -6.6722    0.0000 C   0  0  0  0  0  0  0  0  0  0  0  0
    5.6062   -7.4144    0.0000 C   0  0  0  0  0  0  0  0  0  0  0  0
    6.4291   -7.4734    0.0000 C   0  0  0  0  0  0  0  0  0  0  0  0
    6.7894   -8.2155    0.0000 C   0  0  0  0  0  0  0  0  0  0  0  0
    7.6123   -8.2746    0.0000 C   0  0  0  0  0  0  0  0  0  0  0  0
    7.9726   -9.0167    0.0000 C   0  0  0  0  0  0  0  0  0  0  0  0
    7.5101   -9.6998    0.0000 O   0  0  0  0  0  0  0  0  0  0  0  0
    8.7955   -9.0757    0.0000 O   0  0  0  0  0  0  0  0  0  0  0  0
    9.1559   -9.8179    0.0000 C   0  0  0  0  0  0  0  0  0  0  0  0
    9.9787   -9.8769    0.0000 C   0  0  0  0  0  0  0  0  0  0  0  0
    8.6933  -10.5010    0.0000 C   0  0  0  0  0  0  0  0  0  0  0  0
  1  2  1  0  0  0  0
  2  3  1  0  0  0  0
  3  4  1  0  0  0  0
  4  5  1  0  0  0  0
  5  6  1  0  0  0  0
  6  7  1  0  0  0  0
  7  8  1  0  0  0  0
  8  9  2  0  0  0  0
  8 10  1  0  0  0  0
 10 11  1  0  0  0  0
 12 11  1  1  0  0  0
 12 13  1  0  0  0  0
 13 14  1  6  0  0  0
 13 15  1  0  0  0  0
 15 16  1  0  0  0  0
 16 17  1  6  0  0  0
 16 18  1  0  0  0  0
 12 18  1  0  0  0  0
 18 19  1  6  0  0  0
 19 20  1  0  0  0  0
 20 21  2  0  0  0  0
 21 22  1  0  0  0  0
 22 23  1  0  0  0  0
 23 24  1  0  0  0  0
 24 25  1  0  0  0  0
 25 26  2  0  0  0  0
 25 27  1  0  0  0  0
 27 28  1  0  0  0  0
 28 29  1  0  0  0  0
 28 30  1  0  0  0  0
M  END
>  <ID>
2794

>  <PREFERRED_NAME>
unoprostone isopropyl

>  <CAS_RN>
120373-24-2

>  <SYNONYMS>
unoprostone isopropyl
unoprostone isopropyl ester
isopropyl unoprostone
rescula

>  <URL>
http://drugcentral.org/drugcard/2794/view

$$$$
