vancomycin
  -INDIGO-06102311062D

101110  0  0  1  0  0  0  0  0999 V2000
   -0.1276   -2.3000    0.0000 C   0  0  0  0  0  0  0  0  0  0  0  0
    0.3315   -2.9854    0.0000 N   0  0  0  0  0  0  0  0  0  0  0  0
    1.1546   -2.9306    0.0000 C   0  0  2  0  0  0  0  0  0  0  0  0
    1.6137   -3.6160    0.0000 C   0  0  0  0  0  0  0  0  0  0  0  0
    1.2497   -4.3564    0.0000 C   0  0  0  0  0  0  0  0  0  0  0  0
    1.7088   -5.0418    0.0000 C   0  0  0  0  0  0  0  0  0  0  0  0
    0.4265   -4.4112    0.0000 C   0  0  0  0  0  0  0  0  0  0  0  0
    1.5187   -2.1903    0.0000 C   0  0  0  0  0  0  0  0  0  0  0  0
    2.3419   -2.1354    0.0000 O   0  0  0  0  0  0  0  0  0  0  0  0
    1.0596   -1.5048    0.0000 N   0  0  0  0  0  0  0  0  0  0  0  0
    1.4237   -0.7645    0.0000 C   0  0  2  0  0  0  0  0  0  0  0  0
    0.7634   -0.2327    0.0000 C   0  0  2  0  0  0  0  0  0  0  0  0
    0.0703   -0.6801    0.0000 O   0  0  0  0  0  0  0  0  0  0  0  0
    0.5496    0.5919    0.0000 C   0  0  0  0  0  0  0  0  0  0  0  0
    1.3636    0.7857    0.0000 C   0  0  0  0  0  0  0  0  0  0  0  0
    1.6222    1.5695    0.0000 C   0  0  0  0  0  0  0  0  0  0  0  0
    1.1154    2.2335    0.0000 C   0  0  0  0  0  0  0  0  0  0  0  0
    1.7436    2.8424    0.0000 O   0  0  0  0  0  0  0  0  0  0  0  0
    2.5107    3.2551    0.0000 C   0  0  0  0  0  0  0  0  0  0  0  0
    2.8870    4.0140    0.0000 C   0  0  0  0  0  0  0  0  0  0  0  0
    2.4089    4.6864    0.0000 O   0  0  0  0  0  0  0  0  0  0  0  0
    1.5876    4.6085    0.0000 C   0  0  2  0  0  0  0  0  0  0  0  0
    1.2443    3.8584    0.0000 O   0  0  0  0  0  0  0  0  0  0  0  0
    0.4230    3.7806    0.0000 C   0  0  2  0  0  0  0  0  0  0  0  0
    0.0797    3.0304    0.0000 C   0  0  0  0  0  0  0  0  0  0  0  0
   -0.7416    2.9526    0.0000 O   0  0  0  0  0  0  0  0  0  0  0  0
   -0.0550    4.4529    0.0000 C   0  0  1  0  0  0  0  0  0  0  0  0
   -0.8764    4.3751    0.0000 O   0  0  0  0  0  0  0  0  0  0  0  0
    0.2883    5.2031    0.0000 C   0  0  2  0  0  0  0  0  0  0  0  0
   -0.1898    5.8755    0.0000 O   0  0  0  0  0  0  0  0  0  0  0  0
    1.1096    5.2809    0.0000 C   0  0  1  0  0  0  0  0  0  0  0  0
    1.4529    6.0311    0.0000 O   0  0  0  0  0  0  0  0  0  0  0  0
    0.9748    6.7035    0.0000 C   0  0  1  0  0  0  0  0  0  0  0  0
    1.3181    7.4537    0.0000 C   0  0  0  0  0  0  0  0  0  0  0  0
    0.8401    8.1261    0.0000 C   0  0  2  0  0  0  0  0  0  0  0  0
    1.5852    8.4801    0.0000 C   0  0  0  0  0  0  0  0  0  0  0  0
    0.6208    8.9214    0.0000 N   0  0  0  0  0  0  0  0  0  0  0  0
    0.0187    8.0483    0.0000 C   0  0  2  0  0  0  0  0  0  0  0  0
   -0.4593    8.7207    0.0000 O   0  0  0  0  0  0  0  0  0  0  0  0
   -0.3245    7.2981    0.0000 C   0  0  2  0  0  0  0  0  0  0  0  0
   -1.1459    7.2203    0.0000 C   0  0  0  0  0  0  0  0  0  0  0  0
    0.1535    6.6257    0.0000 O   0  0  0  0  0  0  0  0  0  0  0  0
    3.7265    4.1200    0.0000 C   0  0  0  0  0  0  0  0  0  0  0  0
    4.1795    3.4166    0.0000 C   0  0  0  0  0  0  0  0  0  0  0  0
    3.8613    2.6430    0.0000 C   0  0  0  0  0  0  0  0  0  0  0  0
    3.0274    2.5967    0.0000 C   0  0  0  0  0  0  0  0  0  0  0  0
    4.3167    1.9247    0.0000 C   0  0  1  0  0  0  0  0  0  0  0  0
    4.1801    1.0880    0.0000 N   0  0  0  0  0  0  0  0  0  0  0  0
    4.2545    0.2555    0.0000 C   0  0  0  0  0  0  0  0  0  0  0  0
    5.0568    0.0636    0.0000 O   0  0  0  0  0  0  0  0  0  0  0  0
    3.8109   -0.4538    0.0000 C   0  0  2  0  0  0  0  0  0  0  0  0
    4.3803   -1.0508    0.0000 C   0  0  0  0  0  0  0  0  0  0  0  0
    4.1479   -1.8424    0.0000 C   0  0  0  0  0  0  0  0  0  0  0  0
    4.7172   -2.4395    0.0000 N   0  0  0  0  0  0  0  0  0  0  0  0
    3.3462   -2.0370    0.0000 O   0  0  0  0  0  0  0  0  0  0  0  0
    3.0808   -0.8635    0.0000 N   0  0  0  0  0  0  0  0  0  0  0  0
    2.2415   -0.9613    0.0000 C   0  0  0  0  0  0  0  0  0  0  0  0
    2.1920   -1.7848    0.0000 O   0  0  0  0  0  0  0  0  0  0  0  0
    5.1507    1.8163    0.0000 C   0  0  0  0  0  0  0  0  0  0  0  0
    5.3753    2.6102    0.0000 O   0  0  0  0  0  0  0  0  0  0  0  0
    5.9063    1.4770    0.0000 N   0  0  0  0  0  0  0  0  0  0  0  0
    6.7260    1.6532    0.0000 C   0  0  2  0  0  0  0  0  0  0  0  0
    7.3620    1.0839    0.0000 C   0  0  0  0  0  0  0  0  0  0  0  0
    8.1500    1.3656    0.0000 C   0  0  0  0  0  0  0  0  0  0  0  0
    8.8142    0.8560    0.0000 C   0  0  0  0  0  0  0  0  0  0  0  0
    8.6752    0.0313    0.0000 C   0  0  0  0  0  0  0  0  0  0  0  0
    9.3156   -0.4888    0.0000 O   0  0  0  0  0  0  0  0  0  0  0  0
    7.9011   -0.2719    0.0000 C   0  0  0  0  0  0  0  0  0  0  0  0
    7.2548    0.2517    0.0000 C   0  0  0  0  0  0  0  0  0  0  0  0
    9.5714    1.2266    0.0000 C   0  0  0  0  0  0  0  0  0  0  0  0
    9.8201    2.0133    0.0000 C   0  0  0  0  0  0  0  0  0  0  0  0
   10.6257    2.1912    0.0000 C   0  0  0  0  0  0  0  0  0  0  0  0
   11.1826    1.5825    0.0000 C   0  0  0  0  0  0  0  0  0  0  0  0
   11.9881    1.7605    0.0000 O   0  0  0  0  0  0  0  0  0  0  0  0
   10.9339    0.7959    0.0000 C   0  0  0  0  0  0  0  0  0  0  0  0
   10.1283    0.6180    0.0000 C   0  0  0  0  0  0  0  0  0  0  0  0
    9.8796   -0.1687    0.0000 O   0  0  0  0  0  0  0  0  0  0  0  0
    9.3226    2.6851    0.0000 C   0  0  2  0  0  0  0  0  0  0  0  0
    9.3111    3.5154    0.0000 N   0  0  0  0  0  0  0  0  0  0  0  0
    8.6277    3.9837    0.0000 C   0  0  0  0  0  0  0  0  0  0  0  0
    8.8013    4.7902    0.0000 O   0  0  0  0  0  0  0  0  0  0  0  0
    7.8005    3.8360    0.0000 C   0  0  1  0  0  0  0  0  0  0  0  0
    7.4436    3.0654    0.0000 N   0  0  0  0  0  0  0  0  0  0  0  0
    6.8318    2.4898    0.0000 C   0  0  0  0  0  0  0  0  0  0  0  0
    6.0965    2.8640    0.0000 O   0  0  0  0  0  0  0  0  0  0  0  0
    7.5420    4.6465    0.0000 C   0  0  2  0  0  0  0  0  0  0  0  0
    8.2058    5.1363    0.0000 O   0  0  0  0  0  0  0  0  0  0  0  0
    6.8476    5.1299    0.0000 C   0  0  0  0  0  0  0  0  0  0  0  0
    6.3951    4.4280    0.0000 C   0  0  0  0  0  0  0  0  0  0  0  0
    5.5699    4.4407    0.0000 C   0  0  0  0  0  0  0  0  0  0  0  0
    5.1165    5.1390    0.0000 C   0  0  0  0  0  0  0  0  0  0  0  0
    4.3527    4.7211    0.0000 O   0  0  0  0  0  0  0  0  0  0  0  0
    5.5912    5.8558    0.0000 C   0  0  0  0  0  0  0  0  0  0  0  0
    5.2000    6.5821    0.0000 Cl  0  0  0  0  0  0  0  0  0  0  0  0
    6.4276    5.8577    0.0000 C   0  0  0  0  0  0  0  0  0  0  0  0
   10.1042    2.9490    0.0000 C   0  0  0  0  0  0  0  0  0  0  0  0
   10.2665    3.7579    0.0000 O   0  0  0  0  0  0  0  0  0  0  0  0
   10.8617    2.6221    0.0000 O   0  0  0  0  0  0  0  0  0  0  0  0
    0.2813    2.0180    0.0000 C   0  0  0  0  0  0  0  0  0  0  0  0
   -0.2757    2.6266    0.0000 Cl  0  0  0  0  0  0  0  0  0  0  0  0
    0.0012    1.2289    0.0000 C   0  0  0  0  0  0  0  0  0  0  0  0
  1  2  1  0  0  0  0
  3  2  1  1  0  0  0
  3  4  1  0  0  0  0
  4  5  1  0  0  0  0
  5  6  1  0  0  0  0
  5  7  1  0  0  0  0
  3  8  1  0  0  0  0
  8  9  2  0  0  0  0
  8 10  1  0  0  0  0
 11 10  1  6  0  0  0
 11 12  1  0  0  0  0
 12 13  1  6  0  0  0
 12 14  1  0  0  0  0
 14 15  4  0  0  0  0
 15 16  4  0  0  0  0
 16 17  4  0  0  0  0
 17 18  1  0  0  0  0
 18 19  1  0  0  0  0
 19 20  4  0  0  0  0
 20 21  1  0  0  0  0
 22 21  1  6  0  0  0
 22 23  1  0  0  0  0
 23 24  1  0  0  0  0
 24 25  1  6  0  0  0
 25 26  1  0  0  0  0
 24 27  1  0  0  0  0
 27 28  1  1  0  0  0
 27 29  1  0  0  0  0
 29 30  1  6  0  0  0
 29 31  1  0  0  0  0
 22 31  1  0  0  0  0
 31 32  1  1  0  0  0
 33 32  1  6  0  0  0
 33 34  1  0  0  0  0
 34 35  1  0  0  0  0
 35 36  1  6  0  0  0
 35 37  1  1  0  0  0
 35 38  1  0  0  0  0
 38 39  1  1  0  0  0
 38 40  1  0  0  0  0
 40 41  1  1  0  0  0
 40 42  1  0  0  0  0
 33 42  1  0  0  0  0
 20 43  4  0  0  0  0
 43 44  4  0  0  0  0
 44 45  4  0  0  0  0
 45 46  4  0  0  0  0
 19 46  4  0  0  0  0
 47 45  1  6  0  0  0
 47 48  1  0  0  0  0
 48 49  1  0  0  0  0
 49 50  2  0  0  0  0
 49 51  1  0  0  0  0
 51 52  1  6  0  0  0
 52 53  1  0  0  0  0
 53 54  1  0  0  0  0
 53 55  2  0  0  0  0
 51 56  1  0  0  0  0
 56 57  1  0  0  0  0
 11 57  1  0  0  0  0
 57 58  2  0  0  0  0
 47 59  1  0  0  0  0
 59 60  2  0  0  0  0
 59 61  1  0  0  0  0
 61 62  1  0  0  0  0
 62 63  1  1  0  0  0
 63 64  4  0  0  0  0
 64 65  4  0  0  0  0
 65 66  4  0  0  0  0
 66 67  1  0  0  0  0
 66 68  4  0  0  0  0
 68 69  4  0  0  0  0
 63 69  4  0  0  0  0
 65 70  1  0  0  0  0
 70 71  4  0  0  0  0
 71 72  4  0  0  0  0
 72 73  4  0  0  0  0
 73 74  1  0  0  0  0
 73 75  4  0  0  0  0
 75 76  4  0  0  0  0
 70 76  4  0  0  0  0
 76 77  1  0  0  0  0
 71 78  1  0  0  0  0
 78 79  1  0  0  0  0
 79 80  1  0  0  0  0
 80 81  2  0  0  0  0
 80 82  1  0  0  0  0
 82 83  1  1  0  0  0
 83 84  1  0  0  0  0
 62 84  1  0  0  0  0
 84 85  2  0  0  0  0
 82 86  1  0  0  0  0
 86 87  1  1  0  0  0
 86 88  1  0  0  0  0
 88 89  4  0  0  0  0
 89 90  4  0  0  0  0
 90 91  4  0  0  0  0
 91 92  1  0  0  0  0
 43 92  1  0  0  0  0
 91 93  4  0  0  0  0
 93 94  1  0  0  0  0
 93 95  4  0  0  0  0
 88 95  4  0  0  0  0
 78 96  1  1  0  0  0
 96 97  1  0  0  0  0
 96 98  2  0  0  0  0
 17 99  4  0  0  0  0
 99100  1  0  0  0  0
 99101  4  0  0  0  0
 14101  4  0  0  0  0
M  END
>  <ID>
2807

>  <PREFERRED_NAME>
vancomycin

>  <CAS_RN>
1404-90-6

>  <SYNONYMS>
vancomycin
diatracin
vancocin
vancocine
vancoled
vancomycin hydrochloride
vancomycin HCl

>  <URL>
http://drugcentral.org/drugcard/2807/view

$$$$
