varenicline
  -INDIGO-06102311062D

 16 19  0  0  1  0  0  0  0  0999 V2000
    1.5428    2.7580    0.0000 C   0  0  0  0  0  0  0  0  0  0  0  0
    1.7745    1.8311    0.0000 C   0  0  1  0  0  0  0  0  0  0  0  0
    2.5788    2.0147    0.0000 C   0  0  0  0  0  0  0  0  0  0  0  0
    2.9368    2.7580    0.0000 N   0  0  0  0  0  0  0  0  0  0  0  0
    2.5788    3.5013    0.0000 C   0  0  0  0  0  0  0  0  0  0  0  0
    1.7745    3.6849    0.0000 C   0  0  2  0  0  0  0  0  0  0  0  0
    1.1295    3.1705    0.0000 C   0  0  0  0  0  0  0  0  0  0  0  0
    1.1295    2.3455    0.0000 C   0  0  0  0  0  0  0  0  0  0  0  0
    0.4151    1.9330    0.0000 C   0  0  0  0  0  0  0  0  0  0  0  0
   -0.2994    2.3455    0.0000 C   0  0  0  0  0  0  0  0  0  0  0  0
   -1.0139    1.9330    0.0000 N   0  0  0  0  0  0  0  0  0  0  0  0
   -1.7284    2.3455    0.0000 C   0  0  0  0  0  0  0  0  0  0  0  0
   -1.7284    3.1705    0.0000 C   0  0  0  0  0  0  0  0  0  0  0  0
   -1.0139    3.5830    0.0000 N   0  0  0  0  0  0  0  0  0  0  0  0
   -0.2994    3.1705    0.0000 C   0  0  0  0  0  0  0  0  0  0  0  0
    0.4151    3.5830    0.0000 C   0  0  0  0  0  0  0  0  0  0  0  0
  2  1  1  6  0  0  0
  2  3  1  0  0  0  0
  3  4  1  0  0  0  0
  4  5  1  0  0  0  0
  5  6  1  0  0  0  0
  6  1  1  6  0  0  0
  6  7  1  0  0  0  0
  7  8  4  0  0  0  0
  2  8  1  0  0  0  0
  8  9  4  0  0  0  0
  9 10  4  0  0  0  0
 10 11  4  0  0  0  0
 11 12  4  0  0  0  0
 12 13  4  0  0  0  0
 13 14  4  0  0  0  0
 14 15  4  0  0  0  0
 10 15  4  0  0  0  0
 15 16  4  0  0  0  0
  7 16  4  0  0  0  0
M  END
>  <ID>
2808

>  <PREFERRED_NAME>
varenicline

>  <CAS_RN>
249296-44-4

>  <SYNONYMS>
varenicline
champix
chantix
varenicline tartrate
CP-526,555-18

>  <URL>
http://drugcentral.org/drugcard/2808/view

$$$$
