veralipride
  -INDIGO-06102311062D

 26 27  0  0  0  0  0  0  0  0999 V2000
    5.7158    9.6536    0.0000 C   0  0  0  0  0  0  0  0  0  0  0  0
    5.0013    9.2411    0.0000 O   0  0  0  0  0  0  0  0  0  0  0  0
    5.0013    8.4161    0.0000 C   0  0  0  0  0  0  0  0  0  0  0  0
    5.7158    8.0036    0.0000 C   0  0  0  0  0  0  0  0  0  0  0  0
    5.7158    7.1786    0.0000 C   0  0  0  0  0  0  0  0  0  0  0  0
    5.0013    6.7661    0.0000 C   0  0  0  0  0  0  0  0  0  0  0  0
    4.2868    7.1786    0.0000 C   0  0  0  0  0  0  0  0  0  0  0  0
    3.5724    6.7661    0.0000 C   0  0  0  0  0  0  0  0  0  0  0  0
    2.8579    7.1786    0.0000 O   0  0  0  0  0  0  0  0  0  0  0  0
    3.5724    5.9411    0.0000 N   0  0  0  0  0  0  0  0  0  0  0  0
    2.8579    5.5286    0.0000 C   0  0  0  0  0  0  0  0  0  0  0  0
    2.8579    4.7036    0.0000 C   0  0  0  0  0  0  0  0  0  0  0  0
    3.5253    4.2187    0.0000 C   0  0  0  0  0  0  0  0  0  0  0  0
    3.2704    3.4340    0.0000 C   0  0  0  0  0  0  0  0  0  0  0  0
    2.4454    3.4340    0.0000 C   0  0  0  0  0  0  0  0  0  0  0  0
    2.1904    4.2187    0.0000 N   0  0  0  0  0  0  0  0  0  0  0  0
    1.4058    4.4736    0.0000 C   0  0  0  0  0  0  0  0  0  0  0  0
    0.7927    3.9216    0.0000 C   0  0  0  0  0  0  0  0  0  0  0  0
    0.9643    3.1146    0.0000 C   0  0  0  0  0  0  0  0  0  0  0  0
    4.2868    8.0036    0.0000 C   0  0  0  0  0  0  0  0  0  0  0  0
    3.5724    8.4161    0.0000 O   0  0  0  0  0  0  0  0  0  0  0  0
    3.5724    9.2411    0.0000 C   0  0  0  0  0  0  0  0  0  0  0  0
    6.4302    6.7661    0.0000 S   0  0  0  0  0  0  0  0  0  0  0  0
    7.1447    6.3536    0.0000 N   0  0  0  0  0  0  0  0  0  0  0  0
    6.0177    6.0516    0.0000 O   0  0  0  0  0  0  0  0  0  0  0  0
    6.8427    7.4805    0.0000 O   0  0  0  0  0  0  0  0  0  0  0  0
  1  2  1  0  0  0  0
  2  3  1  0  0  0  0
  3  4  4  0  0  0  0
  4  5  4  0  0  0  0
  5  6  4  0  0  0  0
  6  7  4  0  0  0  0
  7  8  1  0  0  0  0
  8  9  2  0  0  0  0
  8 10  1  0  0  0  0
 10 11  1  0  0  0  0
 11 12  1  0  0  0  0
 12 13  1  0  0  0  0
 13 14  1  0  0  0  0
 14 15  1  0  0  0  0
 15 16  1  0  0  0  0
 12 16  1  0  0  0  0
 16 17  1  0  0  0  0
 17 18  1  0  0  0  0
 18 19  2  0  0  0  0
  7 20  4  0  0  0  0
  3 20  4  0  0  0  0
 20 21  1  0  0  0  0
 21 22  1  0  0  0  0
  5 23  1  0  0  0  0
 23 24  1  0  0  0  0
 23 25  2  0  0  0  0
 23 26  2  0  0  0  0
M  END
>  <ID>
2814

>  <PREFERRED_NAME>
veralipride

>  <CAS_RN>
66644-81-3

>  <SYNONYMS>
veralipride
(+/-)-Veralipride

>  <URL>
http://drugcentral.org/drugcard/2814/view

$$$$
