vinflunine
  -INDIGO-06102311102D

 59 67  0  0  1  0  0  0  0  0999 V2000
   -2.2352   -2.3214    0.0000 C   0  0  0  0  0  0  0  0  0  0  0  0
   -1.4646   -2.6162    0.0000 C   0  0  0  0  0  0  0  0  0  0  0  0
   -0.8240   -2.0963    0.0000 C   0  0  1  0  0  0  0  0  0  0  0  0
   -1.5946   -1.8015    0.0000 C   0  0  0  0  0  0  0  0  0  0  0  0
   -1.7245   -0.9868    0.0000 C   0  0  0  0  0  0  0  0  0  0  0  0
   -1.0839   -0.4669    0.0000 C   0  0  0  0  0  0  0  0  0  0  0  0
   -0.3134   -0.7618    0.0000 N   0  0  0  0  0  0  0  0  0  0  0  0
    0.6555   -0.5382    0.0000 C   0  0  0  0  0  0  0  0  0  0  0  0
    1.1056   -1.2296    0.0000 C   0  0  0  0  0  0  0  0  0  0  0  0
    0.5871   -1.8713    0.0000 C   0  0  1  0  0  0  0  0  0  0  0  0
   -0.1834   -1.5765    0.0000 C   0  0  2  0  0  0  0  0  0  0  0  0
    0.7170   -2.6860    0.0000 C   0  0  1  0  0  0  0  0  0  0  0  0
    1.5320   -2.8142    0.0000 N   0  0  0  0  0  0  0  0  0  0  0  0
    1.9073   -3.5489    0.0000 C   0  0  0  0  0  0  0  0  0  0  0  0
    1.9057   -2.0787    0.0000 C   0  0  0  0  0  0  0  0  0  0  0  0
    1.3218   -1.4960    0.0000 C   0  0  0  0  0  0  0  0  0  0  0  0
    1.5344   -0.6989    0.0000 C   0  0  0  0  0  0  0  0  0  0  0  0
    2.3311   -0.4845    0.0000 C   0  0  0  0  0  0  0  0  0  0  0  0
    2.9151   -1.0673    0.0000 C   0  0  0  0  0  0  0  0  0  0  0  0
    3.7117   -0.8529    0.0000 O   0  0  0  0  0  0  0  0  0  0  0  0
    4.2957   -1.4356    0.0000 C   0  0  0  0  0  0  0  0  0  0  0  0
    2.7024   -1.8644    0.0000 C   0  0  0  0  0  0  0  0  0  0  0  0
    2.2871    0.3393    0.0000 C   0  0  1  0  0  0  0  0  0  0  0  0
    1.8413    1.0698    0.0000 C   0  0  0  0  0  0  0  0  0  0  0  0
    1.9744    1.9327    0.0000 C   0  0  2  0  0  0  0  0  0  0  0  0
    1.8379    2.7882    0.0000 C   0  0  0  0  0  0  0  0  0  0  0  0
    2.4488    3.3726    0.0000 C   0  0  2  0  0  0  0  0  0  0  0  0
    3.2410    3.0777    0.0000 C   0  0  0  0  0  0  0  0  0  0  0  0
    3.4542    2.2380    0.0000 N   0  0  1  0  0  0  0  0  0  0  0  0
    2.7278    2.0200    0.0000 C   0  0  0  0  0  0  0  0  0  0  0  0
    3.9179    1.4982    0.0000 C   0  0  0  0  0  0  0  0  0  0  0  0
    3.7976    0.6509    0.0000 C   0  0  0  0  0  0  0  0  0  0  0  0
    3.1237    0.1751    0.0000 C   0  0  0  0  0  0  0  0  0  0  0  0
    3.3680   -0.6129    0.0000 N   0  0  0  0  0  0  0  0  0  0  0  0
    4.1929   -0.6241    0.0000 C   0  0  0  0  0  0  0  0  0  0  0  0
    4.4585    0.1570    0.0000 C   0  0  0  0  0  0  0  0  0  0  0  0
    5.2677    0.3176    0.0000 C   0  0  0  0  0  0  0  0  0  0  0  0
    5.8114   -0.3029    0.0000 C   0  0  0  0  0  0  0  0  0  0  0  0
    5.5458   -1.0840    0.0000 C   0  0  0  0  0  0  0  0  0  0  0  0
    4.7366   -1.2446    0.0000 C   0  0  0  0  0  0  0  0  0  0  0  0
    2.2821    4.1805    0.0000 C   0  0  0  0  0  0  0  0  0  0  0  0
    1.4741    4.0139    0.0000 C   0  0  0  0  0  0  0  0  0  0  0  0
    2.1154    4.9885    0.0000 F   0  0  0  0  0  0  0  0  0  0  0  0
    3.0901    4.3472    0.0000 F   0  0  0  0  0  0  0  0  0  0  0  0
    1.4991    0.0950    0.0000 C   0  0  0  0  0  0  0  0  0  0  0  0
    1.0770   -0.6139    0.0000 O   0  0  0  0  0  0  0  0  0  0  0  0
    0.8935    0.6552    0.0000 O   0  0  0  0  0  0  0  0  0  0  0  0
    0.1055    0.4109    0.0000 C   0  0  0  0  0  0  0  0  0  0  0  0
    0.0764   -3.2059    0.0000 C   0  0  2  0  0  0  0  0  0  0  0  0
    0.6996   -3.7465    0.0000 O   0  0  0  0  0  0  0  0  0  0  0  0
   -0.6941   -2.9110    0.0000 C   0  0  2  0  0  0  0  0  0  0  0  0
   -1.3347   -3.4309    0.0000 O   0  0  0  0  0  0  0  0  0  0  0  0
   -2.1052   -3.1361    0.0000 C   0  0  0  0  0  0  0  0  0  0  0  0
   -2.7458   -3.6559    0.0000 C   0  0  0  0  0  0  0  0  0  0  0  0
   -2.6892   -2.5533    0.0000 O   0  0  0  0  0  0  0  0  0  0  0  0
   -0.3478   -3.9135    0.0000 C   0  0  0  0  0  0  0  0  0  0  0  0
   -1.1727   -3.9000    0.0000 O   0  0  0  0  0  0  0  0  0  0  0  0
    0.0530   -4.6346    0.0000 O   0  0  0  0  0  0  0  0  0  0  0  0
   -0.3712   -5.3422    0.0000 C   0  0  0  0  0  0  0  0  0  0  0  0
  1  2  1  0  0  0  0
  3  2  1  1  0  0  0
  3  4  1  0  0  0  0
  4  5  2  0  0  0  0
  5  6  1  0  0  0  0
  6  7  1  0  0  0  0
  7  8  1  0  0  0  0
  8  9  1  0  0  0  0
 10  9  1  6  0  0  0
 10 11  1  0  0  0  0
  3 11  1  0  0  0  0
 11  7  1  6  0  0  0
 10 12  1  0  0  0  0
 12 13  1  1  0  0  0
 13 14  1  0  0  0  0
 13 15  1  0  0  0  0
 15 16  4  0  0  0  0
 10 16  1  0  0  0  0
 16 17  4  0  0  0  0
 17 18  4  0  0  0  0
 18 19  4  0  0  0  0
 19 20  1  0  0  0  0
 20 21  1  0  0  0  0
 19 22  4  0  0  0  0
 15 22  4  0  0  0  0
 23 18  1  1  0  0  0
 23 24  1  0  0  0  0
 24 25  1  0  0  0  0
 25 26  1  0  0  0  0
 26 27  1  0  0  0  0
 27 28  1  0  0  0  0
 28 29  1  0  0  0  0
 29 30  1  6  0  0  0
 25 30  1  6  0  0  0
 29 31  1  0  0  0  0
 31 32  1  0  0  0  0
 32 33  4  0  0  0  0
 23 33  1  0  0  0  0
 33 34  4  0  0  0  0
 34 35  4  0  0  0  0
 35 36  4  0  0  0  0
 32 36  4  0  0  0  0
 36 37  4  0  0  0  0
 37 38  4  0  0  0  0
 38 39  4  0  0  0  0
 39 40  4  0  0  0  0
 35 40  4  0  0  0  0
 27 41  1  1  0  0  0
 41 42  1  0  0  0  0
 41 43  1  0  0  0  0
 41 44  1  0  0  0  0
 23 45  1  6  0  0  0
 45 46  2  0  0  0  0
 45 47  1  0  0  0  0
 47 48  1  0  0  0  0
 12 49  1  0  0  0  0
 49 50  1  6  0  0  0
 49 51  1  0  0  0  0
  3 51  1  0  0  0  0
 51 52  1  6  0  0  0
 52 53  1  0  0  0  0
 53 54  1  0  0  0  0
 53 55  2  0  0  0  0
 49 56  1  1  0  0  0
 56 57  2  0  0  0  0
 56 58  1  0  0  0  0
 58 59  1  0  0  0  0
M  STY  1   1 DAT
M  SLB  1   1   1
M  SAL   1  1  34
M  SDT   1 MRV_IMPLICIT_H
M  SDD   1     0.0000    0.0000    DA    ALL  1       1
M  SED   1 IMPL_H1
M  END
>  <ID>
3644

>  <PREFERRED_NAME>
vinflunine

>  <CAS_RN>
162652-95-1

>  <SYNONYMS>
vinflunine
javlor
vinflunine ditartrate

>  <URL>
http://drugcentral.org/drugcard/3644/view

$$$$
