voacamine
  -INDIGO-06102311182D

 52 60  0  0  1  0  0  0  0  0999 V2000
   -0.5036   -1.3208    0.0000 C   0  0  0  0  0  0  0  0  0  0  0  0
    0.3411   -1.0694    0.0000 C   0  0  0  0  0  0  0  0  0  0  0  0
    0.5345   -0.2099    0.0000 C   0  0  1  0  0  0  0  0  0  0  0  0
   -0.0280    0.4083    0.0000 C   0  0  0  0  0  0  0  0  0  0  0  0
    0.5691    1.0129    0.0000 C   0  0  1  0  0  0  0  0  0  0  0  0
    0.4777    1.8435    0.0000 C   0  0  0  0  0  0  0  0  0  0  0  0
    1.1999    1.4192    0.0000 N   0  0  0  0  0  0  0  0  0  0  0  0
    1.8961    1.9651    0.0000 C   0  0  0  0  0  0  0  0  0  0  0  0
    2.7346    1.8609    0.0000 C   0  0  0  0  0  0  0  0  0  0  0  0
    3.0970    1.0939    0.0000 C   0  0  0  0  0  0  0  0  0  0  0  0
    2.7926    0.3271    0.0000 C   0  0  0  0  0  0  0  0  0  0  0  0
    3.4277   -0.1994    0.0000 N   0  0  0  0  0  0  0  0  0  0  0  0
    4.1247    0.2420    0.0000 C   0  0  0  0  0  0  0  0  0  0  0  0
    3.9203    1.0413    0.0000 C   0  0  0  0  0  0  0  0  0  0  0  0
    4.5103    1.6180    0.0000 C   0  0  0  0  0  0  0  0  0  0  0  0
    5.3047    1.3954    0.0000 C   0  0  0  0  0  0  0  0  0  0  0  0
    5.5123    2.2766    0.0000 O   0  0  0  0  0  0  0  0  0  0  0  0
    5.3209    3.1174    0.0000 C   0  0  0  0  0  0  0  0  0  0  0  0
    5.5091    0.5961    0.0000 C   0  0  0  0  0  0  0  0  0  0  0  0
    4.9191    0.0194    0.0000 C   0  0  0  0  0  0  0  0  0  0  0  0
    6.3035    0.3735    0.0000 C   0  0  1  0  0  0  0  0  0  0  0  0
    6.8468    1.0348    0.0000 C   0  0  0  0  0  0  0  0  0  0  0  0
    7.7054    1.1929    0.0000 C   0  0  2  0  0  0  0  0  0  0  0  0
    8.0357    0.5101    0.0000 C   0  0  1  0  0  0  0  0  0  0  0  0
    8.4804   -0.1042    0.0000 C   0  0  2  0  0  0  0  0  0  0  0  0
    7.9344   -0.7855    0.0000 C   0  0  0  0  0  0  0  0  0  0  0  0
    7.0946   -0.9505    0.0000 C   0  0  0  0  0  0  0  0  0  0  0  0
    6.4236   -0.4706    0.0000 C   0  0  0  0  0  0  0  0  0  0  0  0
    5.7598   -0.9605    0.0000 N   0  0  0  0  0  0  0  0  0  0  0  0
    6.0206   -1.7432    0.0000 C   0  0  0  0  0  0  0  0  0  0  0  0
    6.8455   -1.7370    0.0000 C   0  0  0  0  0  0  0  0  0  0  0  0
    7.2634   -2.4484    0.0000 C   0  0  0  0  0  0  0  0  0  0  0  0
    6.8562   -3.1659    0.0000 C   0  0  0  0  0  0  0  0  0  0  0  0
    6.0312   -3.1721    0.0000 C   0  0  0  0  0  0  0  0  0  0  0  0
    5.6134   -2.4607    0.0000 C   0  0  0  0  0  0  0  0  0  0  0  0
    9.2033    0.3733    0.0000 N   0  0  0  0  0  0  0  0  0  0  0  0
    9.9936    0.0392    0.0000 C   0  0  0  0  0  0  0  0  0  0  0  0
    9.2212    1.2185    0.0000 C   0  0  0  0  0  0  0  0  0  0  0  0
    8.4684    1.6032    0.0000 C   0  0  0  0  0  0  0  0  0  0  0  0
    8.5638    2.4728    0.0000 C   0  0  0  0  0  0  0  0  0  0  0  0
    9.2059    3.0310    0.0000 C   0  0  0  0  0  0  0  0  0  0  0  0
    7.5385   -0.2222    0.0000 C   0  0  0  0  0  0  0  0  0  0  0  0
    6.9654    0.4099    0.0000 O   0  0  0  0  0  0  0  0  0  0  0  0
    7.6030   -1.1875    0.0000 O   0  0  0  0  0  0  0  0  0  0  0  0
    8.5652   -1.2073    0.0000 C   0  0  0  0  0  0  0  0  0  0  0  0
    1.9372    0.1895    0.0000 C   0  0  2  0  0  0  0  0  0  0  0  0
    1.4840    0.8778    0.0000 C   0  0  0  0  0  0  0  0  0  0  0  0
    1.1031    0.4383    0.0000 C   0  0  2  0  0  0  0  0  0  0  0  0
    1.8189   -0.7161    0.0000 C   0  0  0  0  0  0  0  0  0  0  0  0
    1.1096   -1.2092    0.0000 O   0  0  0  0  0  0  0  0  0  0  0  0
    2.1743   -1.5202    0.0000 O   0  0  0  0  0  0  0  0  0  0  0  0
    2.4161   -2.3501    0.0000 C   0  0  0  0  0  0  0  0  0  0  0  0
  1  2  1  0  0  0  0
  3  2  1  1  0  0  0
  3  4  1  0  0  0  0
  5  4  1  1  0  0  0
  5  6  1  0  0  0  0
  6  7  1  0  0  0  0
  7  8  1  0  0  0  0
  8  9  1  0  0  0  0
  9 10  1  0  0  0  0
 10 11  4  0  0  0  0
 11 12  4  0  0  0  0
 12 13  4  0  0  0  0
 13 14  4  0  0  0  0
 10 14  4  0  0  0  0
 14 15  4  0  0  0  0
 15 16  4  0  0  0  0
 16 17  1  0  0  0  0
 17 18  1  0  0  0  0
 16 19  4  0  0  0  0
 19 20  4  0  0  0  0
 13 20  4  0  0  0  0
 21 19  1  1  0  0  0
 21 22  1  0  0  0  0
 22 23  1  0  0  0  0
 23 24  1  0  0  0  0
 24 25  1  0  0  0  0
 25 26  1  0  0  0  0
 26 27  1  0  0  0  0
 27 28  4  0  0  0  0
 21 28  1  0  0  0  0
 28 29  4  0  0  0  0
 29 30  4  0  0  0  0
 30 31  4  0  0  0  0
 27 31  4  0  0  0  0
 31 32  4  0  0  0  0
 32 33  4  0  0  0  0
 33 34  4  0  0  0  0
 34 35  4  0  0  0  0
 30 35  4  0  0  0  0
 25 36  1  1  0  0  0
 36 37  1  0  0  0  0
 36 38  1  0  0  0  0
 38 39  1  0  0  0  0
 23 39  1  1  0  0  0
 39 40  2  0  0  0  0
 40 41  1  0  0  0  0
 24 42  1  1  0  0  0
 42 43  2  0  0  0  0
 42 44  1  0  0  0  0
 44 45  1  0  0  0  0
 11 46  1  0  0  0  0
 46 47  1  0  0  0  0
  5 47  1  0  0  0  0
 46 48  1  0  0  0  0
  3 48  1  0  0  0  0
 48  7  1  6  0  0  0
 46 49  1  6  0  0  0
 49 50  2  0  0  0  0
 49 51  1  0  0  0  0
 51 52  1  0  0  0  0
M  STY  2   1 DAT   2 DAT
M  SLB  2   1   1   2   2
M  SAL   1  1  29
M  SDT   1 MRV_IMPLICIT_H
M  SDD   1     0.0000    0.0000    DA    ALL  1       1
M  SED   1 IMPL_H1
M  SAL   2  1  12
M  SDT   2 MRV_IMPLICIT_H
M  SDD   2     0.0000    0.0000    DA    ALL  1       1
M  SED   2 IMPL_H1
M  END
>  <ID>
5100

>  <PREFERRED_NAME>
voacamine

>  <CAS_RN>
3371-85-5

>  <SYNONYMS>
voacamine
voacanginine
vocamine

>  <URL>
http://drugcentral.org/drugcard/5100/view

$$$$
