voriconazole
  -INDIGO-06102311072D

 25 27  0  0  1  0  0  0  0  0999 V2000
   -1.3222    0.5423    0.0000 C   0  0  0  0  0  0  0  0  0  0  0  0
   -0.9097   -0.1721    0.0000 C   0  0  1  0  0  0  0  0  0  0  0  0
   -0.0847   -0.1721    0.0000 C   0  0  0  0  0  0  0  0  0  0  0  0
    0.3278   -0.8866    0.0000 N   0  0  0  0  0  0  0  0  0  0  0  0
    1.1528   -0.8866    0.0000 C   0  0  0  0  0  0  0  0  0  0  0  0
    1.5653   -0.1721    0.0000 N   0  0  0  0  0  0  0  0  0  0  0  0
    1.1528    0.5423    0.0000 C   0  0  0  0  0  0  0  0  0  0  0  0
    0.3278    0.5423    0.0000 C   0  0  0  0  0  0  0  0  0  0  0  0
   -0.0847    1.2568    0.0000 F   0  0  0  0  0  0  0  0  0  0  0  0
   -1.3222   -0.8866    0.0000 C   0  0  2  0  0  0  0  0  0  0  0  0
   -1.7347   -1.6011    0.0000 O   0  0  0  0  0  0  0  0  0  0  0  0
   -0.6078   -1.2991    0.0000 C   0  0  0  0  0  0  0  0  0  0  0  0
   -0.6078   -2.1241    0.0000 N   0  0  0  0  0  0  0  0  0  0  0  0
   -1.2752   -2.6090    0.0000 C   0  0  0  0  0  0  0  0  0  0  0  0
   -1.0203   -3.3937    0.0000 N   0  0  0  0  0  0  0  0  0  0  0  0
   -0.1953   -3.3937    0.0000 C   0  0  0  0  0  0  0  0  0  0  0  0
    0.0597   -2.6090    0.0000 N   0  0  0  0  0  0  0  0  0  0  0  0
   -2.0367   -0.4741    0.0000 C   0  0  0  0  0  0  0  0  0  0  0  0
   -2.7512   -0.8866    0.0000 C   0  0  0  0  0  0  0  0  0  0  0  0
   -2.7512   -1.7116    0.0000 F   0  0  0  0  0  0  0  0  0  0  0  0
   -3.4656   -0.4741    0.0000 C   0  0  0  0  0  0  0  0  0  0  0  0
   -3.4656    0.3509    0.0000 C   0  0  0  0  0  0  0  0  0  0  0  0
   -4.1801    0.7634    0.0000 F   0  0  0  0  0  0  0  0  0  0  0  0
   -2.7512    0.7634    0.0000 C   0  0  0  0  0  0  0  0  0  0  0  0
   -2.0367    0.3509    0.0000 C   0  0  0  0  0  0  0  0  0  0  0  0
  2  1  1  1  0  0  0
  2  3  1  0  0  0  0
  3  4  4  0  0  0  0
  4  5  4  0  0  0  0
  5  6  4  0  0  0  0
  6  7  4  0  0  0  0
  7  8  4  0  0  0  0
  3  8  4  0  0  0  0
  8  9  1  0  0  0  0
  2 10  1  0  0  0  0
 10 11  1  1  0  0  0
 10 12  1  6  0  0  0
 12 13  1  0  0  0  0
 13 14  4  0  0  0  0
 14 15  4  0  0  0  0
 15 16  4  0  0  0  0
 16 17  4  0  0  0  0
 13 17  4  0  0  0  0
 10 18  1  0  0  0  0
 18 19  4  0  0  0  0
 19 20  1  0  0  0  0
 19 21  4  0  0  0  0
 21 22  4  0  0  0  0
 22 23  1  0  0  0  0
 22 24  4  0  0  0  0
 24 25  4  0  0  0  0
 18 25  4  0  0  0  0
M  END
>  <ID>
2846

>  <PREFERRED_NAME>
voriconazole

>  <CAS_RN>
137234-62-9

>  <SYNONYMS>
voriconazole
voriconazol
vfend
UK109496
UK-109496
UK 109496

>  <URL>
http://drugcentral.org/drugcard/2846/view

$$$$
