voxilaprevir
  -INDIGO-06102311202D

 60 66  0  0  1  0  0  0  0  0999 V2000
    0.8858   -0.6564    0.0000 C   0  0  0  0  0  0  0  0  0  0  0  0
    1.4378   -1.2695    0.0000 C   0  0  0  0  0  0  0  0  0  0  0  0
    2.2448   -1.0980    0.0000 C   0  0  2  0  0  0  0  0  0  0  0  0
    2.8579   -1.6500    0.0000 C   0  0  2  0  0  0  0  0  0  0  0  0
    3.5724   -1.2375    0.0000 C   0  0  0  0  0  0  0  0  0  0  0  0
    3.5724   -0.4125    0.0000 N   0  0  0  0  0  0  0  0  0  0  0  0
    2.5803   -0.3443    0.0000 C   0  0  2  0  0  0  0  0  0  0  0  0
    2.1550    0.3626    0.0000 C   0  0  0  0  0  0  0  0  0  0  0  0
    1.3302    0.3477    0.0000 O   0  0  0  0  0  0  0  0  0  0  0  0
    2.5546    1.0844    0.0000 N   0  0  0  0  0  0  0  0  0  0  0  0
    2.1293    1.7913    0.0000 C   0  0  2  0  0  0  0  0  0  0  0  0
    1.9714    2.6011    0.0000 C   0  0  0  0  0  0  0  0  0  0  0  0
    2.7516    2.3329    0.0000 C   0  0  1  0  0  0  0  0  0  0  0  0
    3.5613    2.4908    0.0000 C   0  0  0  0  0  0  0  0  0  0  0  0
    4.1029    1.8685    0.0000 F   0  0  0  0  0  0  0  0  0  0  0  0
    3.8295    3.2710    0.0000 F   0  0  0  0  0  0  0  0  0  0  0  0
    1.3592    1.4952    0.0000 C   0  0  0  0  0  0  0  0  0  0  0  0
    1.2306    0.6803    0.0000 O   0  0  0  0  0  0  0  0  0  0  0  0
    0.7178    2.0140    0.0000 N   0  0  0  0  0  0  0  0  0  0  0  0
   -0.0523    1.7179    0.0000 S   0  0  0  0  0  0  0  0  0  0  0  0
    0.2439    0.9479    0.0000 O   0  0  0  0  0  0  0  0  0  0  0  0
   -0.3484    2.4880    0.0000 O   0  0  0  0  0  0  0  0  0  0  0  0
   -0.8223    1.4218    0.0000 C   0  0  0  0  0  0  0  0  0  0  0  0
   -1.2476    2.1288    0.0000 C   0  0  0  0  0  0  0  0  0  0  0  0
   -0.6644    0.6121    0.0000 C   0  0  0  0  0  0  0  0  0  0  0  0
   -1.4446    0.8802    0.0000 C   0  0  0  0  0  0  0  0  0  0  0  0
    4.2868    0.0000    0.0000 C   0  0  0  0  0  0  0  0  0  0  0  0
    4.2868    0.8250    0.0000 O   0  0  0  0  0  0  0  0  0  0  0  0
    5.0013   -0.4125    0.0000 C   0  0  1  0  0  0  0  0  0  0  0  0
    5.0013   -1.2375    0.0000 N   0  0  0  0  0  0  0  0  0  0  0  0
    5.7158   -1.6500    0.0000 C   0  0  0  0  0  0  0  0  0  0  0  0
    6.4302   -1.2375    0.0000 O   0  0  0  0  0  0  0  0  0  0  0  0
    5.7158   -2.4750    0.0000 O   0  0  0  0  0  0  0  0  0  0  0  0
    6.4302   -2.8875    0.0000 C   0  0  2  0  0  0  0  0  0  0  0  0
    7.1447   -3.3000    0.0000 C   0  0  0  0  0  0  0  0  0  0  0  0
    6.4302   -3.7125    0.0000 C   0  0  1  0  0  0  0  0  0  0  0  0
    5.7158   -4.1250    0.0000 C   0  0  0  0  0  0  0  0  0  0  0  0
    5.7158   -4.9500    0.0000 C   0  0  0  0  0  0  0  0  0  0  0  0
    5.0013   -5.3625    0.0000 C   0  0  0  0  0  0  0  0  0  0  0  0
    4.2868   -4.9500    0.0000 C   0  0  0  0  0  0  0  0  0  0  0  0
    4.2868   -4.1250    0.0000 C   0  0  0  0  0  0  0  0  0  0  0  0
    3.7565   -4.7570    0.0000 F   0  0  0  0  0  0  0  0  0  0  0  0
    3.4744   -4.2683    0.0000 F   0  0  0  0  0  0  0  0  0  0  0  0
    3.5724   -3.7125    0.0000 C   0  0  0  0  0  0  0  0  0  0  0  0
    2.8579   -4.1250    0.0000 N   0  0  0  0  0  0  0  0  0  0  0  0
    2.1434   -3.7125    0.0000 C   0  0  0  0  0  0  0  0  0  0  0  0
    1.4289   -4.1250    0.0000 C   0  0  0  0  0  0  0  0  0  0  0  0
    0.7145   -3.7125    0.0000 C   0  0  0  0  0  0  0  0  0  0  0  0
    0.7145   -2.8875    0.0000 C   0  0  0  0  0  0  0  0  0  0  0  0
    0.0000   -2.4750    0.0000 O   0  0  0  0  0  0  0  0  0  0  0  0
   -0.7145   -2.8875    0.0000 C   0  0  0  0  0  0  0  0  0  0  0  0
    1.4289   -2.4750    0.0000 C   0  0  0  0  0  0  0  0  0  0  0  0
    2.1434   -2.8875    0.0000 C   0  0  0  0  0  0  0  0  0  0  0  0
    2.9485   -2.1369    0.0000 N   0  0  0  0  0  0  0  0  0  0  0  0
    3.5724   -2.8875    0.0000 C   0  0  0  0  0  0  0  0  0  0  0  0
    2.8579   -2.4750    0.0000 O   0  0  0  0  0  0  0  0  0  0  0  0
    5.7158    0.0000    0.0000 C   0  0  0  0  0  0  0  0  0  0  0  0
    6.4302    0.4125    0.0000 C   0  0  0  0  0  0  0  0  0  0  0  0
    6.1283   -0.7145    0.0000 C   0  0  0  0  0  0  0  0  0  0  0  0
    5.3033    0.7145    0.0000 C   0  0  0  0  0  0  0  0  0  0  0  0
  1  2  1  0  0  0  0
  3  2  1  1  0  0  0
  3  4  1  0  0  0  0
  4  5  1  6  0  0  0
  5  6  1  0  0  0  0
  6  7  1  0  0  0  0
  3  7  1  0  0  0  0
  7  8  1  1  0  0  0
  8  9  2  0  0  0  0
  8 10  1  0  0  0  0
 11 10  1  6  0  0  0
 11 12  1  0  0  0  0
 12 13  1  0  0  0  0
 11 13  1  0  0  0  0
 13 14  1  1  0  0  0
 14 15  1  0  0  0  0
 14 16  1  0  0  0  0
 11 17  1  1  0  0  0
 17 18  2  0  0  0  0
 17 19  1  0  0  0  0
 19 20  1  0  0  0  0
 20 21  2  0  0  0  0
 20 22  2  0  0  0  0
 20 23  1  0  0  0  0
 23 24  1  0  0  0  0
 23 25  1  0  0  0  0
 25 26  1  0  0  0  0
 23 26  1  0  0  0  0
  6 27  1  0  0  0  0
 27 28  2  0  0  0  0
 27 29  1  0  0  0  0
 29 30  1  0  0  0  0
 30 31  1  0  0  0  0
 31 32  2  0  0  0  0
 31 33  1  0  0  0  0
 33 34  1  0  0  0  0
 34 35  1  6  0  0  0
 36 35  1  1  0  0  0
 34 36  1  0  0  0  0
 36 37  1  0  0  0  0
 37 38  1  0  0  0  0
 38 39  1  0  0  0  0
 39 40  1  0  0  0  0
 40 41  1  0  0  0  0
 41 42  1  0  0  0  0
 41 43  1  0  0  0  0
 41 44  1  0  0  0  0
 44 45  4  0  0  0  0
 45 46  4  0  0  0  0
 46 47  4  0  0  0  0
 47 48  4  0  0  0  0
 48 49  4  0  0  0  0
 49 50  1  0  0  0  0
 50 51  1  0  0  0  0
 49 52  4  0  0  0  0
 52 53  4  0  0  0  0
 46 53  4  0  0  0  0
 53 54  4  0  0  0  0
 54 55  4  0  0  0  0
 44 55  4  0  0  0  0
 55 56  1  0  0  0  0
  4 56  1  0  0  0  0
 29 57  1  6  0  0  0
 57 58  1  0  0  0  0
 57 59  1  0  0  0  0
 57 60  1  0  0  0  0
M  END
>  <ID>
5242

>  <PREFERRED_NAME>
voxilaprevir

>  <CAS_RN>
1535212-07-7

>  <SYNONYMS>
voxilaprevir
GS-9857

>  <URL>
http://drugcentral.org/drugcard/5242/view

$$$$
