xenon (127Xe) gas
  -INDIGO-06102311122D

  1  0  0  0  0  0  0  0  0  0999 V2000
    0.0000    0.0000    0.0000 Xe  0  0  0  0  0  0  0  0  0  0  0  0
M  ISO  1   1 127
M  END
>  <ID>
4370

>  <PREFERRED_NAME>
xenon (127Xe) gas

>  <CAS_RN>
13994-19-9

>  <SYNONYMS>
xenon (127Xe) gas
XENON XE-127
Xe 127
Xenon-127

>  <URL>
http://drugcentral.org/drugcard/4370/view

$$$$
