xenytropium
  -INDIGO-06102311072D

 34 38  0  0  1  0  0  0  0  0999 V2000
    2.3294   -0.4800    0.0000 C   0  0  0  0  0  0  0  0  0  0  0  0
    1.3941   -0.0001    0.0000 N   0  0  0  0  0  0  0  0  0  0  0  0
    2.3521    0.5018    0.0000 C   0  0  0  0  0  0  0  0  0  0  0  0
    2.0053    1.2916    0.0000 C   0  0  0  0  0  0  0  0  0  0  0  0
    1.1852    1.3820    0.0000 C   0  0  0  0  0  0  0  0  0  0  0  0
    0.8535    2.1374    0.0000 C   0  0  0  0  0  0  0  0  0  0  0  0
    1.3419    2.8023    0.0000 C   0  0  0  0  0  0  0  0  0  0  0  0
    2.1619    2.7119    0.0000 C   0  0  0  0  0  0  0  0  0  0  0  0
    2.4936    1.9565    0.0000 C   0  0  0  0  0  0  0  0  0  0  0  0
    1.0102    3.5577    0.0000 C   0  0  0  0  0  0  0  0  0  0  0  0
    0.1901    3.6481    0.0000 C   0  0  0  0  0  0  0  0  0  0  0  0
   -0.1416    4.4035    0.0000 C   0  0  0  0  0  0  0  0  0  0  0  0
    0.3468    5.0685    0.0000 C   0  0  0  0  0  0  0  0  0  0  0  0
    1.1668    4.9780    0.0000 C   0  0  0  0  0  0  0  0  0  0  0  0
    1.4985    4.2226    0.0000 C   0  0  0  0  0  0  0  0  0  0  0  0
    1.1624    0.9268    0.0000 C   0  0  1  0  0  0  0  0  0  0  0  0
    0.5174    0.4124    0.0000 C   0  0  0  0  0  0  0  0  0  0  0  0
    0.5174   -0.4126    0.0000 C   0  0  0  0  0  0  0  0  0  0  0  0
    1.1624   -0.9270    0.0000 C   0  0  2  0  0  0  0  0  0  0  0  0
    1.9667   -0.7434    0.0000 C   0  0  0  0  0  0  0  0  0  0  0  0
    2.3247   -0.0001    0.0000 C   0  0  1  0  0  0  0  0  0  0  0  0
    1.9667    0.7432    0.0000 C   0  0  0  0  0  0  0  0  0  0  0  0
    3.2874   -0.0747    0.0000 O   0  0  0  0  0  0  0  0  0  0  0  0
    3.9764   -0.6116    0.0000 C   0  0  0  0  0  0  0  0  0  0  0  0
    3.3653   -1.1658    0.0000 O   0  0  0  0  0  0  0  0  0  0  0  0
    4.7739   -0.8676    0.0000 C   0  0  0  0  0  0  0  0  0  0  0  0
    5.2464   -0.1702    0.0000 C   0  0  0  0  0  0  0  0  0  0  0  0
    6.0692   -0.2295    0.0000 O   0  0  0  0  0  0  0  0  0  0  0  0
    5.1340   -1.6099    0.0000 C   0  0  0  0  0  0  0  0  0  0  0  0
    5.9569   -1.6691    0.0000 C   0  0  0  0  0  0  0  0  0  0  0  0
    6.3170   -2.4113    0.0000 C   0  0  0  0  0  0  0  0  0  0  0  0
    5.8543   -3.0944    0.0000 C   0  0  0  0  0  0  0  0  0  0  0  0
    5.0314   -3.0351    0.0000 C   0  0  0  0  0  0  0  0  0  0  0  0
    4.6713   -2.2929    0.0000 C   0  0  0  0  0  0  0  0  0  0  0  0
  1  2  1  0  0  0  0
  2  3  1  0  0  0  0
  3  4  1  0  0  0  0
  4  5  4  0  0  0  0
  5  6  4  0  0  0  0
  6  7  4  0  0  0  0
  7  8  4  0  0  0  0
  8  9  4  0  0  0  0
  4  9  4  0  0  0  0
  7 10  1  0  0  0  0
 10 11  4  0  0  0  0
 11 12  4  0  0  0  0
 12 13  4  0  0  0  0
 13 14  4  0  0  0  0
 14 15  4  0  0  0  0
 10 15  4  0  0  0  0
  2 16  1  0  0  0  0
 16 17  1  1  0  0  0
 17 18  1  0  0  0  0
 19 18  1  1  0  0  0
  2 19  1  0  0  0  0
 19 20  1  0  0  0  0
 20 21  1  0  0  0  0
 21 22  1  0  0  0  0
 16 22  1  0  0  0  0
 21 23  1  1  0  0  0
 23 24  1  0  0  0  0
 24 25  2  0  0  0  0
 24 26  1  0  0  0  0
 26 27  1  0  0  0  0
 27 28  1  0  0  0  0
 26 29  1  0  0  0  0
 29 30  4  0  0  0  0
 30 31  4  0  0  0  0
 31 32  4  0  0  0  0
 32 33  4  0  0  0  0
 33 34  4  0  0  0  0
 29 34  4  0  0  0  0
M  CHG  1   2   1
M  END
>  <ID>
2850

>  <PREFERRED_NAME>
xenytropium

>  <CAS_RN>
38971-12-9

>  <SYNONYMS>
xenytropium
xenytropium bromide

>  <URL>
http://drugcentral.org/drugcard/2850/view

$$$$
