zafirlukast
  -INDIGO-06102311072D

 41 45  0  0  0  0  0  0  0  0999 V2000
   -1.1633    3.1080    0.0000 C   0  0  0  0  0  0  0  0  0  0  0  0
   -0.9083    2.3234    0.0000 O   0  0  0  0  0  0  0  0  0  0  0  0
   -0.1014    2.1518    0.0000 C   0  0  0  0  0  0  0  0  0  0  0  0
    0.1536    1.3672    0.0000 C   0  0  0  0  0  0  0  0  0  0  0  0
   -0.3984    0.7541    0.0000 C   0  0  0  0  0  0  0  0  0  0  0  0
   -0.1435   -0.0305    0.0000 C   0  0  0  0  0  0  0  0  0  0  0  0
   -0.6284   -0.6979    0.0000 C   0  0  0  0  0  0  0  0  0  0  0  0
   -0.1435   -1.3654    0.0000 N   0  0  0  0  0  0  0  0  0  0  0  0
   -0.3984   -2.1500    0.0000 C   0  0  0  0  0  0  0  0  0  0  0  0
    0.6411   -1.1104    0.0000 C   0  0  0  0  0  0  0  0  0  0  0  0
    0.6411   -0.2854    0.0000 C   0  0  0  0  0  0  0  0  0  0  0  0
    1.3556    0.1271    0.0000 C   0  0  0  0  0  0  0  0  0  0  0  0
    2.0701   -0.2854    0.0000 C   0  0  0  0  0  0  0  0  0  0  0  0
    2.7845    0.1271    0.0000 N   0  0  0  0  0  0  0  0  0  0  0  0
    3.4990   -0.2854    0.0000 C   0  0  0  0  0  0  0  0  0  0  0  0
    3.4990   -1.1104    0.0000 O   0  0  0  0  0  0  0  0  0  0  0  0
    4.2135    0.1271    0.0000 O   0  0  0  0  0  0  0  0  0  0  0  0
    4.9279   -0.2854    0.0000 C   0  0  0  0  0  0  0  0  0  0  0  0
    5.6816    0.0501    0.0000 C   0  0  0  0  0  0  0  0  0  0  0  0
    6.2336   -0.5630    0.0000 C   0  0  0  0  0  0  0  0  0  0  0  0
    5.8211   -1.2775    0.0000 C   0  0  0  0  0  0  0  0  0  0  0  0
    5.0142   -1.1059    0.0000 C   0  0  0  0  0  0  0  0  0  0  0  0
    2.0701   -1.1104    0.0000 C   0  0  0  0  0  0  0  0  0  0  0  0
    1.3556   -1.5229    0.0000 C   0  0  0  0  0  0  0  0  0  0  0  0
    0.9606    1.1957    0.0000 C   0  0  0  0  0  0  0  0  0  0  0  0
    1.5126    1.8088    0.0000 C   0  0  0  0  0  0  0  0  0  0  0  0
    1.2577    2.5934    0.0000 C   0  0  0  0  0  0  0  0  0  0  0  0
    0.4507    2.7649    0.0000 C   0  0  0  0  0  0  0  0  0  0  0  0
    1.8097    3.2065    0.0000 C   0  0  0  0  0  0  0  0  0  0  0  0
    1.5547    3.9911    0.0000 O   0  0  0  0  0  0  0  0  0  0  0  0
    2.6167    3.0350    0.0000 N   0  0  0  0  0  0  0  0  0  0  0  0
    2.8716    2.2503    0.0000 S   0  0  0  0  0  0  0  0  0  0  0  0
    2.0870    1.9954    0.0000 O   0  0  0  0  0  0  0  0  0  0  0  0
    3.1265    1.4657    0.0000 O   0  0  0  0  0  0  0  0  0  0  0  0
    3.6562    2.5053    0.0000 C   0  0  0  0  0  0  0  0  0  0  0  0
    3.8277    3.3123    0.0000 C   0  0  0  0  0  0  0  0  0  0  0  0
    3.2146    3.8643    0.0000 C   0  0  0  0  0  0  0  0  0  0  0  0
    4.6124    3.5672    0.0000 C   0  0  0  0  0  0  0  0  0  0  0  0
    5.2255    3.0152    0.0000 C   0  0  0  0  0  0  0  0  0  0  0  0
    5.0539    2.2082    0.0000 C   0  0  0  0  0  0  0  0  0  0  0  0
    4.2693    1.9533    0.0000 C   0  0  0  0  0  0  0  0  0  0  0  0
  1  2  1  0  0  0  0
  2  3  1  0  0  0  0
  3  4  4  0  0  0  0
  4  5  1  0  0  0  0
  5  6  1  0  0  0  0
  6  7  4  0  0  0  0
  7  8  4  0  0  0  0
  8  9  1  0  0  0  0
  8 10  4  0  0  0  0
 10 11  4  0  0  0  0
  6 11  4  0  0  0  0
 11 12  4  0  0  0  0
 12 13  4  0  0  0  0
 13 14  1  0  0  0  0
 14 15  1  0  0  0  0
 15 16  2  0  0  0  0
 15 17  1  0  0  0  0
 17 18  1  0  0  0  0
 18 19  1  0  0  0  0
 19 20  1  0  0  0  0
 20 21  1  0  0  0  0
 21 22  1  0  0  0  0
 18 22  1  0  0  0  0
 13 23  4  0  0  0  0
 23 24  4  0  0  0  0
 10 24  4  0  0  0  0
  4 25  4  0  0  0  0
 25 26  4  0  0  0  0
 26 27  4  0  0  0  0
 27 28  4  0  0  0  0
  3 28  4  0  0  0  0
 27 29  1  0  0  0  0
 29 30  2  0  0  0  0
 29 31  1  0  0  0  0
 31 32  1  0  0  0  0
 32 33  2  0  0  0  0
 32 34  2  0  0  0  0
 32 35  1  0  0  0  0
 35 36  4  0  0  0  0
 36 37  1  0  0  0  0
 36 38  4  0  0  0  0
 38 39  4  0  0  0  0
 39 40  4  0  0  0  0
 40 41  4  0  0  0  0
 35 41  4  0  0  0  0
M  END
>  <ID>
2855

>  <PREFERRED_NAME>
zafirlukast

>  <CAS_RN>
107753-78-6

>  <SYNONYMS>
zafirlukast
ICI-204219
ICI 204219
ICI 204,219
vanticon

>  <URL>
http://drugcentral.org/drugcard/2855/view

$$$$
