ziconotide
  -INDIGO-06102311072D

177180  0  0  1  0  0  0  0  0999 V2000
    1.3753   -6.0702    0.0000 C   0  0  0  0  0  0  0  0  0  0  0  0
    1.1291   -5.2828    0.0000 S   0  0  0  0  0  0  0  0  0  0  0  0
    1.6878   -4.6758    0.0000 C   0  0  0  0  0  0  0  0  0  0  0  0
    1.4179   -3.8129    0.0000 C   0  0  0  0  0  0  0  0  0  0  0  0
    1.3250   -2.7583    0.0000 C   0  0  2  0  0  0  0  0  0  0  0  0
    0.9761   -3.5240    0.0000 N   0  0  0  0  0  0  0  0  0  0  0  0
    0.1817   -3.7899    0.0000 C   0  0  0  0  0  0  0  0  0  0  0  0
   -0.1739   -4.5923    0.0000 O   0  0  0  0  0  0  0  0  0  0  0  0
   -0.4273   -3.2251    0.0000 C   0  0  2  0  0  0  0  0  0  0  0  0
   -1.2120   -3.6773    0.0000 C   0  0  0  0  0  0  0  0  0  0  0  0
   -1.5420   -4.4873    0.0000 C   0  0  0  0  0  0  0  0  0  0  0  0
   -1.0360   -5.1389    0.0000 C   0  0  0  0  0  0  0  0  0  0  0  0
   -2.3593   -4.5998    0.0000 C   0  0  0  0  0  0  0  0  0  0  0  0
   -0.3206   -2.3620    0.0000 N   0  0  0  0  0  0  0  0  0  0  0  0
   -0.4467   -1.4745    0.0000 C   0  0  0  0  0  0  0  0  0  0  0  0
   -0.1647   -0.9871    0.0000 O   0  0  0  0  0  0  0  0  0  0  0  0
   -0.3981   -0.6460    0.0000 C   0  0  2  0  0  0  0  0  0  0  0  0
    0.4640   -0.7650    0.0000 C   0  0  0  0  0  0  0  0  0  0  0  0
    1.0033    0.2064    0.0000 C   0  0  0  0  0  0  0  0  0  0  0  0
    0.8606    1.2296    0.0000 C   0  0  0  0  0  0  0  0  0  0  0  0
    1.2210    1.9634    0.0000 N   0  0  0  0  0  0  0  0  0  0  0  0
    0.3812    2.3716    0.0000 C   0  0  0  0  0  0  0  0  0  0  0  0
    0.3226    3.1946    0.0000 N   0  0  0  0  0  0  0  0  0  0  0  0
   -0.3021    1.9094    0.0000 N   0  0  0  0  0  0  0  0  0  0  0  0
   -0.0242    0.2045    0.0000 N   0  0  0  0  0  0  0  0  0  0  0  0
    0.7492    0.7759    0.0000 C   0  0  0  0  0  0  0  0  0  0  0  0
    0.6011    1.7281    0.0000 O   0  0  0  0  0  0  0  0  0  0  0  0
    0.4000    1.5239    0.0000 C   0  0  2  0  0  0  0  0  0  0  0  0
    0.4694    0.4159    0.0000 C   0  0  0  0  0  0  0  0  0  0  0  0
    0.8262   -0.5410    0.0000 O   0  0  0  0  0  0  0  0  0  0  0  0
    0.1966    0.7247    0.0000 N   0  0  0  0  0  0  0  0  0  0  0  0
    0.6866   -0.1001    0.0000 C   0  0  0  0  0  0  0  0  0  0  0  0
    1.5068    0.3090    0.0000 O   0  0  0  0  0  0  0  0  0  0  0  0
    0.8808   -1.1148    0.0000 C   0  0  2  0  0  0  0  0  0  0  0  0
    0.1518   -1.6666    0.0000 C   0  0  0  0  0  0  0  0  0  0  0  0
   -0.8332   -1.8908    0.0000 S   0  0  0  0  0  0  0  0  0  0  0  0
   -1.5879   -1.4910    0.0000 S   0  0  0  0  0  0  0  0  0  0  0  0
   -1.4830   -0.6576    0.0000 C   0  0  0  0  0  0  0  0  0  0  0  0
   -0.7680   -0.1391    0.0000 C   0  0  2  0  0  0  0  0  0  0  0  0
   -1.3983    0.4603    0.0000 N   0  0  0  0  0  0  0  0  0  0  0  0
   -1.6203    1.2688    0.0000 C   0  0  0  0  0  0  0  0  0  0  0  0
   -2.4886    1.4202    0.0000 O   0  0  0  0  0  0  0  0  0  0  0  0
   -1.1888    1.9693    0.0000 C   0  0  2  0  0  0  0  0  0  0  0  0
   -0.6661    2.4272    0.0000 C   0  0  0  0  0  0  0  0  0  0  0  0
   -0.8483    3.1517    0.0000 O   0  0  0  0  0  0  0  0  0  0  0  0
   -1.0522    2.7758    0.0000 N   0  0  0  0  0  0  0  0  0  0  0  0
   -1.2286    3.5746    0.0000 C   0  0  0  0  0  0  0  0  0  0  0  0
   -2.1209    3.5871    0.0000 O   0  0  0  0  0  0  0  0  0  0  0  0
   -1.2028    4.3860    0.0000 C   0  0  0  0  0  0  0  0  0  0  0  0
   -0.4193    4.6788    0.0000 N   0  0  0  0  0  0  0  0  0  0  0  0
   -0.6974    5.4567    0.0000 C   0  0  0  0  0  0  0  0  0  0  0  0
   -1.3955    6.0230    0.0000 O   0  0  0  0  0  0  0  0  0  0  0  0
   -1.1404    6.1621    0.0000 C   0  0  1  0  0  0  0  0  0  0  0  0
   -0.7556    6.9111    0.0000 N   0  0  0  0  0  0  0  0  0  0  0  0
    0.0359    7.1517    0.0000 C   0  0  0  0  0  0  0  0  0  0  0  0
   -0.5552    7.8051    0.0000 O   0  0  0  0  0  0  0  0  0  0  0  0
    0.8951    7.2379    0.0000 C   0  0  2  0  0  0  0  0  0  0  0  0
    0.6440    8.0541    0.0000 C   0  0  0  0  0  0  0  0  0  0  0  0
    0.6754    8.9080    0.0000 S   0  0  0  0  0  0  0  0  0  0  0  0
    1.0363    9.6584    0.0000 S   0  0  0  0  0  0  0  0  0  0  0  0
    1.4905   10.3450    0.0000 C   0  0  0  0  0  0  0  0  0  0  0  0
    2.2832   10.6846    0.0000 C   0  0  2  0  0  0  0  0  0  0  0  0
    2.0672   11.5430    0.0000 N   0  0  0  0  0  0  0  0  0  0  0  0
    3.1002   10.5081    0.0000 C   0  0  0  0  0  0  0  0  0  0  0  0
    3.3013   11.3538    0.0000 O   0  0  0  0  0  0  0  0  0  0  0  0
    3.7447    9.9765    0.0000 N   0  0  0  0  0  0  0  0  0  0  0  0
    4.3423    9.3665    0.0000 C   0  0  1  0  0  0  0  0  0  0  0  0
    5.0966   10.0259    0.0000 C   0  0  0  0  0  0  0  0  0  0  0  0
    5.9931   10.2635    0.0000 C   0  0  0  0  0  0  0  0  0  0  0  0
    6.6757   10.8486    0.0000 C   0  0  0  0  0  0  0  0  0  0  0  0
    7.5174   10.6623    0.0000 C   0  0  0  0  0  0  0  0  0  0  0  0
    8.0751   11.3123    0.0000 N   0  0  0  0  0  0  0  0  0  0  0  0
    4.8060    8.6660    0.0000 C   0  0  0  0  0  0  0  0  0  0  0  0
    5.6367    8.4554    0.0000 O   0  0  0  0  0  0  0  0  0  0  0  0
    5.1000    7.8679    0.0000 N   0  0  0  0  0  0  0  0  0  0  0  0
    5.2087    7.0226    0.0000 C   0  0  0  0  0  0  0  0  0  0  0  0
    5.1548    6.1876    0.0000 C   0  0  0  0  0  0  0  0  0  0  0  0
    5.9972    5.9347    0.0000 O   0  0  0  0  0  0  0  0  0  0  0  0
    5.0046    5.3539    0.0000 N   0  0  0  0  0  0  0  0  0  0  0  0
    4.8440    4.5165    0.0000 C   0  0  1  0  0  0  0  0  0  0  0  0
    5.8085    4.2942    0.0000 C   0  0  0  0  0  0  0  0  0  0  0  0
    6.7502    4.2122    0.0000 C   0  0  0  0  0  0  0  0  0  0  0  0
    7.6442    4.2419    0.0000 C   0  0  0  0  0  0  0  0  0  0  0  0
    8.3946    4.6593    0.0000 C   0  0  0  0  0  0  0  0  0  0  0  0
    9.2630    4.5758    0.0000 N   0  0  0  0  0  0  0  0  0  0  0  0
    4.7852    3.6834    0.0000 C   0  0  0  0  0  0  0  0  0  0  0  0
    4.5460    2.9961    0.0000 O   0  0  0  0  0  0  0  0  0  0  0  0
    4.8729    2.8482    0.0000 N   0  0  0  0  0  0  0  0  0  0  0  0
    4.9596    2.0038    0.0000 C   0  0  0  0  0  0  0  0  0  0  0  0
    5.0106    1.1557    0.0000 C   0  0  0  0  0  0  0  0  0  0  0  0
    5.9175    1.1930    0.0000 O   0  0  0  0  0  0  0  0  0  0  0  0
    5.0344    0.3022    0.0000 N   0  0  0  0  0  0  0  0  0  0  0  0
    4.9017   -0.5294    0.0000 C   0  0  1  0  0  0  0  0  0  0  0  0
    5.7796   -0.3389    0.0000 C   0  0  0  0  0  0  0  0  0  0  0  0
    4.6379   -1.3336    0.0000 C   0  0  0  0  0  0  0  0  0  0  0  0
    5.5808   -1.7160    0.0000 O   0  0  0  0  0  0  0  0  0  0  0  0
    4.2094   -2.1119    0.0000 N   0  0  0  0  0  0  0  0  0  0  0  0
    3.2771   -2.1966    0.0000 C   0  0  1  0  0  0  0  0  0  0  0  0
    3.6452   -3.2789    0.0000 C   0  0  0  0  0  0  0  0  0  0  0  0
    4.4835   -3.8926    0.0000 C   0  0  0  0  0  0  0  0  0  0  0  0
    4.5825   -4.8230    0.0000 C   0  0  0  0  0  0  0  0  0  0  0  0
    5.1111   -5.5077    0.0000 C   0  0  0  0  0  0  0  0  0  0  0  0
    4.9846   -6.3736    0.0000 N   0  0  0  0  0  0  0  0  0  0  0  0
    2.5427   -2.0054    0.0000 C   0  0  0  0  0  0  0  0  0  0  0  0
    2.3114   -2.9406    0.0000 O   0  0  0  0  0  0  0  0  0  0  0  0
    1.8057   -1.5507    0.0000 N   0  0  0  0  0  0  0  0  0  0  0  0
    1.6142    6.5906    0.0000 N   0  0  0  0  0  0  0  0  0  0  0  0
    1.8402    5.7526    0.0000 C   0  0  0  0  0  0  0  0  0  0  0  0
    2.6195    6.0808    0.0000 O   0  0  0  0  0  0  0  0  0  0  0  0
    1.3515    5.0341    0.0000 C   0  0  2  0  0  0  0  0  0  0  0  0
    0.8698    5.7466    0.0000 C   0  0  0  0  0  0  0  0  0  0  0  0
    1.0108    6.5800    0.0000 S   0  0  0  0  0  0  0  0  0  0  0  0
    1.6425    7.2739    0.0000 S   0  0  0  0  0  0  0  0  0  0  0  0
    2.2105    7.9356    0.0000 C   0  0  0  0  0  0  0  0  0  0  0  0
    2.9815    8.1600    0.0000 C   0  0  2  0  0  0  0  0  0  0  0  0
    3.5214    7.5116    0.0000 N   0  0  0  0  0  0  0  0  0  0  0  0
    3.5164    6.6989    0.0000 C   0  0  0  0  0  0  0  0  0  0  0  0
    4.4631    6.9107    0.0000 O   0  0  0  0  0  0  0  0  0  0  0  0
    3.4462    5.8798    0.0000 C   0  0  2  0  0  0  0  0  0  0  0  0
    4.2334    6.2291    0.0000 C   0  0  0  0  0  0  0  0  0  0  0  0
    5.0231    6.5908    0.0000 C   0  0  0  0  0  0  0  0  0  0  0  0
    6.1262    6.5885    0.0000 C   0  0  0  0  0  0  0  0  0  0  0  0
    6.9106    7.1022    0.0000 C   0  0  0  0  0  0  0  0  0  0  0  0
    7.7768    7.0544    0.0000 N   0  0  0  0  0  0  0  0  0  0  0  0
    3.0965    5.1452    0.0000 N   0  0  0  0  0  0  0  0  0  0  0  0
    3.1852    4.3321    0.0000 C   0  0  0  0  0  0  0  0  0  0  0  0
    3.9848    4.2817    0.0000 O   0  0  0  0  0  0  0  0  0  0  0  0
    2.7275    3.6388    0.0000 C   0  0  0  0  0  0  0  0  0  0  0  0
    3.0215    2.8848    0.0000 N   0  0  0  0  0  0  0  0  0  0  0  0
    3.1640    2.0718    0.0000 C   0  0  0  0  0  0  0  0  0  0  0  0
    2.4730    2.4600    0.0000 O   0  0  0  0  0  0  0  0  0  0  0  0
    3.3613    1.2607    0.0000 C   0  0  2  0  0  0  0  0  0  0  0  0
    4.1880    1.5740    0.0000 C   0  0  0  0  0  0  0  0  0  0  0  0
    4.5933    2.3600    0.0000 O   0  0  0  0  0  0  0  0  0  0  0  0
    3.4228    0.4420    0.0000 N   0  0  0  0  0  0  0  0  0  0  0  0
    3.0074   -0.3017    0.0000 C   0  0  0  0  0  0  0  0  0  0  0  0
    3.8132    0.0738    0.0000 O   0  0  0  0  0  0  0  0  0  0  0  0
    2.1966   -0.5131    0.0000 C   0  0  2  0  0  0  0  0  0  0  0  0
    2.1858   -1.2729    0.0000 C   0  0  0  0  0  0  0  0  0  0  0  0
    3.2350   -1.6418    0.0000 C   0  0  0  0  0  0  0  0  0  0  0  0
    4.1977   -1.2387    0.0000 C   0  0  0  0  0  0  0  0  0  0  0  0
    5.2567   -1.3293    0.0000 N   0  0  0  0  0  0  0  0  0  0  0  0
    6.2346   -1.2729    0.0000 C   0  0  0  0  0  0  0  0  0  0  0  0
    7.1150   -1.1003    0.0000 N   0  0  0  0  0  0  0  0  0  0  0  0
    7.0636   -1.6277    0.0000 N   0  0  0  0  0  0  0  0  0  0  0  0
    1.2214   -0.4214    0.0000 N   0  0  0  0  0  0  0  0  0  0  0  0
    0.2072   -0.4372    0.0000 C   0  0  0  0  0  0  0  0  0  0  0  0
    0.3066   -1.2684    0.0000 O   0  0  0  0  0  0  0  0  0  0  0  0
    3.1779    8.9760    0.0000 C   0  0  0  0  0  0  0  0  0  0  0  0
    4.0009    8.9270    0.0000 N   0  0  0  0  0  0  0  0  0  0  0  0
    2.7266    9.6384    0.0000 O   0  0  0  0  0  0  0  0  0  0  0  0
    1.3445    4.0907    0.0000 N   0  0  0  0  0  0  0  0  0  0  0  0
    1.2706    3.3478    0.0000 C   0  0  0  0  0  0  0  0  0  0  0  0
    0.4874    3.6028    0.0000 O   0  0  0  0  0  0  0  0  0  0  0  0
    1.4736    2.5206    0.0000 C   0  0  2  0  0  0  0  0  0  0  0  0
    1.7165    3.4921    0.0000 C   0  0  0  0  0  0  0  0  0  0  0  0
    1.7271    4.4967    0.0000 C   0  0  0  0  0  0  0  0  0  0  0  0
    0.8627    4.6718    0.0000 O   0  0  0  0  0  0  0  0  0  0  0  0
    2.6210    4.7865    0.0000 O   0  0  0  0  0  0  0  0  0  0  0  0
    1.7925    1.7261    0.0000 N   0  0  0  0  0  0  0  0  0  0  0  0
    1.9638    0.8603    0.0000 C   0  0  0  0  0  0  0  0  0  0  0  0
    2.7171    1.3386    0.0000 O   0  0  0  0  0  0  0  0  0  0  0  0
    1.8279    0.0130    0.0000 C   0  0  2  0  0  0  0  0  0  0  0  0
    2.6347   -0.0122    0.0000 C   0  0  0  0  0  0  0  0  0  0  0  0
    2.9211   -0.9072    0.0000 C   0  0  0  0  0  0  0  0  0  0  0  0
    3.7372   -1.0286    0.0000 C   0  0  0  0  0  0  0  0  0  0  0  0
    4.0400   -1.7960    0.0000 C   0  0  0  0  0  0  0  0  0  0  0  0
    3.5269   -2.4420    0.0000 C   0  0  0  0  0  0  0  0  0  0  0  0
    4.1715   -3.1220    0.0000 O   0  0  0  0  0  0  0  0  0  0  0  0
    2.7109   -2.3206    0.0000 C   0  0  0  0  0  0  0  0  0  0  0  0
    2.4080   -1.5532    0.0000 C   0  0  0  0  0  0  0  0  0  0  0  0
    1.6407   -0.9441    0.0000 N   0  0  0  0  0  0  0  0  0  0  0  0
    1.3130   -1.8747    0.0000 C   0  0  0  0  0  0  0  0  0  0  0  0
    0.8286   -2.7027    0.0000 O   0  0  0  0  0  0  0  0  0  0  0  0
   -2.1050    5.9661    0.0000 C   0  0  1  0  0  0  0  0  0  0  0  0
   -2.9500    5.6852    0.0000 C   0  0  0  0  0  0  0  0  0  0  0  0
   -2.9139    6.3410    0.0000 O   0  0  0  0  0  0  0  0  0  0  0  0
  1  2  1  0  0  0  0
  2  3  1  0  0  0  0
  3  4  1  0  0  0  0
  5  4  1  6  0  0  0
  5  6  1  0  0  0  0
  6  7  1  0  0  0  0
  7  8  2  0  0  0  0
  7  9  1  0  0  0  0
  9 10  1  6  0  0  0
 10 11  1  0  0  0  0
 11 12  1  0  0  0  0
 11 13  1  0  0  0  0
  9 14  1  0  0  0  0
 14 15  1  0  0  0  0
 15 16  2  0  0  0  0
 15 17  1  0  0  0  0
 17 18  1  6  0  0  0
 18 19  1  0  0  0  0
 19 20  1  0  0  0  0
 20 21  1  0  0  0  0
 21 22  1  0  0  0  0
 22 23  1  0  0  0  0
 22 24  2  0  0  0  0
 17 25  1  0  0  0  0
 25 26  1  0  0  0  0
 26 27  2  0  0  0  0
 26 28  1  0  0  0  0
 28 29  1  1  0  0  0
 29 30  1  0  0  0  0
 28 31  1  0  0  0  0
 31 32  1  0  0  0  0
 32 33  2  0  0  0  0
 32 34  1  0  0  0  0
 34 35  1  0  0  0  0
 35 36  1  0  0  0  0
 36 37  1  0  0  0  0
 37 38  1  0  0  0  0
 38 39  1  0  0  0  0
 39 40  1  6  0  0  0
 40 41  1  0  0  0  0
 41 42  2  0  0  0  0
 41 43  1  0  0  0  0
 43 44  1  1  0  0  0
 44 45  1  0  0  0  0
 43 46  1  0  0  0  0
 46 47  1  0  0  0  0
 47 48  2  0  0  0  0
 47 49  1  0  0  0  0
 49 50  1  0  0  0  0
 50 51  1  0  0  0  0
 51 52  2  0  0  0  0
 51 53  1  0  0  0  0
 53 54  1  0  0  0  0
 54 55  1  0  0  0  0
 55 56  2  0  0  0  0
 55 57  1  0  0  0  0
 57 58  1  0  0  0  0
 58 59  1  0  0  0  0
 59 60  1  0  0  0  0
 60 61  1  0  0  0  0
 61 62  1  0  0  0  0
 62 63  1  6  0  0  0
 62 64  1  0  0  0  0
 64 65  2  0  0  0  0
 64 66  1  0  0  0  0
 66 67  1  0  0  0  0
 67 68  1  1  0  0  0
 68 69  1  0  0  0  0
 69 70  1  0  0  0  0
 70 71  1  0  0  0  0
 71 72  1  0  0  0  0
 67 73  1  0  0  0  0
 73 74  2  0  0  0  0
 73 75  1  0  0  0  0
 75 76  1  0  0  0  0
 76 77  1  0  0  0  0
 77 78  2  0  0  0  0
 77 79  1  0  0  0  0
 79 80  1  0  0  0  0
 80 81  1  6  0  0  0
 81 82  1  0  0  0  0
 82 83  1  0  0  0  0
 83 84  1  0  0  0  0
 84 85  1  0  0  0  0
 80 86  1  0  0  0  0
 86 87  2  0  0  0  0
 86 88  1  0  0  0  0
 88 89  1  0  0  0  0
 89 90  1  0  0  0  0
 90 91  2  0  0  0  0
 90 92  1  0  0  0  0
 92 93  1  0  0  0  0
 93 94  1  1  0  0  0
 93 95  1  0  0  0  0
 95 96  2  0  0  0  0
 95 97  1  0  0  0  0
 97 98  1  0  0  0  0
 98 99  1  1  0  0  0
 99100  1  0  0  0  0
100101  1  0  0  0  0
101102  1  0  0  0  0
102103  1  0  0  0  0
 98104  1  0  0  0  0
104105  2  0  0  0  0
104106  1  0  0  0  0
 34106  1  1  0  0  0
 57107  1  6  0  0  0
107108  1  0  0  0  0
108109  2  0  0  0  0
108110  1  0  0  0  0
110111  1  0  0  0  0
111112  1  0  0  0  0
112113  1  0  0  0  0
113114  1  0  0  0  0
114115  1  0  0  0  0
115116  1  0  0  0  0
116117  1  0  0  0  0
117118  2  0  0  0  0
117119  1  0  0  0  0
119120  1  6  0  0  0
120121  1  0  0  0  0
121122  1  0  0  0  0
122123  1  0  0  0  0
123124  1  0  0  0  0
119125  1  0  0  0  0
125126  1  0  0  0  0
126127  2  0  0  0  0
126128  1  0  0  0  0
128129  1  0  0  0  0
129130  1  0  0  0  0
130131  2  0  0  0  0
130132  1  0  0  0  0
132133  1  6  0  0  0
133134  1  0  0  0  0
132135  1  0  0  0  0
135136  1  0  0  0  0
136137  2  0  0  0  0
136138  1  0  0  0  0
138139  1  6  0  0  0
139140  1  0  0  0  0
140141  1  0  0  0  0
141142  1  0  0  0  0
142143  1  0  0  0  0
143144  1  0  0  0  0
143145  2  0  0  0  0
138146  1  0  0  0  0
146147  1  0  0  0  0
 39147  1  0  0  0  0
147148  2  0  0  0  0
115149  1  1  0  0  0
149150  1  0  0  0  0
149151  2  0  0  0  0
110152  1  1  0  0  0
152153  1  0  0  0  0
153154  2  0  0  0  0
153155  1  0  0  0  0
155156  1  1  0  0  0
156157  1  0  0  0  0
157158  1  0  0  0  0
157159  2  0  0  0  0
155160  1  0  0  0  0
160161  1  0  0  0  0
161162  2  0  0  0  0
161163  1  0  0  0  0
163164  1  6  0  0  0
164165  1  0  0  0  0
165166  4  0  0  0  0
166167  4  0  0  0  0
167168  4  0  0  0  0
168169  1  0  0  0  0
168170  4  0  0  0  0
170171  4  0  0  0  0
165171  4  0  0  0  0
163172  1  0  0  0  0
172173  1  0  0  0  0
  5173  1  0  0  0  0
173174  2  0  0  0  0
 53175  1  6  0  0  0
175176  1  0  0  0  0
175177  1  1  0  0  0
M  END
>  <ID>
2878

>  <PREFERRED_NAME>
ziconotide

>  <CAS_RN>
107452-89-1

>  <SYNONYMS>
ziconotide
prialt
omega-Conopeptide MVIIA (Conus)
ziconotide acetate

>  <URL>
http://drugcentral.org/drugcard/2878/view

$$$$
