zinostatin
  -INDIGO-06102311102D

 48 54  0  0  1  0  0  0  0  0999 V2000
   -0.9736   -4.8310    0.0000 C   0  0  0  0  0  0  0  0  0  0  0  0
   -0.6002   -4.0954    0.0000 N   0  0  0  0  0  0  0  0  0  0  0  0
    0.2236   -4.0510    0.0000 C   0  0  1  0  0  0  0  0  0  0  0  0
    0.5971   -3.3154    0.0000 C   0  0  1  0  0  0  0  0  0  0  0  0
    0.1468   -2.6241    0.0000 O   0  0  0  0  0  0  0  0  0  0  0  0
    0.5203   -1.8885    0.0000 C   0  0  1  0  0  0  0  0  0  0  0  0
    0.1446   -1.1540    0.0000 C   0  0  2  0  0  0  0  0  0  0  0  0
   -0.6704   -1.0261    0.0000 O   0  0  0  0  0  0  0  0  0  0  0  0
   -1.1886   -1.6680    0.0000 C   0  0  0  0  0  0  0  0  0  0  0  0
   -0.8919   -2.4378    0.0000 O   0  0  0  0  0  0  0  0  0  0  0  0
   -2.0037   -1.5401    0.0000 C   0  0  0  0  0  0  0  0  0  0  0  0
   -2.3005   -0.7704    0.0000 C   0  0  0  0  0  0  0  0  0  0  0  0
   -1.7822   -0.1285    0.0000 O   0  0  0  0  0  0  0  0  0  0  0  0
   -3.1155   -0.6425    0.0000 C   0  0  0  0  0  0  0  0  0  0  0  0
   -3.6337   -1.2844    0.0000 C   0  0  0  0  0  0  0  0  0  0  0  0
   -3.3370   -2.0542    0.0000 C   0  0  0  0  0  0  0  0  0  0  0  0
   -2.5219   -2.1820    0.0000 C   0  0  0  0  0  0  0  0  0  0  0  0
   -2.2252   -2.9518    0.0000 C   0  0  0  0  0  0  0  0  0  0  0  0
   -2.7434   -3.5937    0.0000 C   0  0  0  0  0  0  0  0  0  0  0  0
   -2.4466   -4.3635    0.0000 O   0  0  0  0  0  0  0  0  0  0  0  0
   -2.9649   -5.0054    0.0000 C   0  0  0  0  0  0  0  0  0  0  0  0
   -3.5584   -3.4658    0.0000 C   0  0  0  0  0  0  0  0  0  0  0  0
   -3.8552   -2.6961    0.0000 C   0  0  0  0  0  0  0  0  0  0  0  0
   -4.6702   -2.5682    0.0000 C   0  0  0  0  0  0  0  0  0  0  0  0
    0.7271   -0.5698    0.0000 C   0  0  0  0  0  0  0  0  0  0  0  0
    1.4628   -0.9432    0.0000 C   0  0  0  0  0  0  0  0  0  0  0  0
    2.0846   -0.4011    0.0000 C   0  0  0  0  0  0  0  0  0  0  0  0
    2.9095   -0.3855    0.0000 C   0  0  0  0  0  0  0  0  0  0  0  0
    3.5514   -0.9037    0.0000 C   0  0  2  0  0  0  0  0  0  0  0  0
    4.3318   -1.1712    0.0000 O   0  0  0  0  0  0  0  0  0  0  0  0
    3.7100   -1.7133    0.0000 C   0  0  2  0  0  0  0  0  0  0  0  0
    3.3111   -2.4355    0.0000 C   0  0  0  0  0  0  0  0  0  0  0  0
    2.5413   -2.7323    0.0000 C   0  0  0  0  0  0  0  0  0  0  0  0
    1.7608   -2.4648    0.0000 C   0  0  0  0  0  0  0  0  0  0  0  0
    1.3349   -1.7583    0.0000 C   0  0  0  0  0  0  0  0  0  0  0  0
    3.9503   -0.1816    0.0000 C   0  0  1  0  0  0  0  0  0  0  0  0
    3.6005    0.5656    0.0000 C   0  0  0  0  0  0  0  0  0  0  0  0
    4.2031    1.1291    0.0000 O   0  0  0  0  0  0  0  0  0  0  0  0
    4.9252    0.7302    0.0000 C   0  0  0  0  0  0  0  0  0  0  0  0
    5.6724    1.0800    0.0000 O   0  0  0  0  0  0  0  0  0  0  0  0
    4.7690   -0.0798    0.0000 O   0  0  0  0  0  0  0  0  0  0  0  0
    1.4209   -3.2710    0.0000 O   0  0  0  0  0  0  0  0  0  0  0  0
    1.8713   -3.9622    0.0000 C   0  0  2  0  0  0  0  0  0  0  0  0
    2.6951   -3.9179    0.0000 C   0  0  0  0  0  0  0  0  0  0  0  0
    1.4978   -4.6979    0.0000 C   0  0  2  0  0  0  0  0  0  0  0  0
    1.9481   -5.3891    0.0000 O   0  0  0  0  0  0  0  0  0  0  0  0
    0.6740   -4.7423    0.0000 C   0  0  2  0  0  0  0  0  0  0  0  0
    0.3005   -5.4779    0.0000 O   0  0  0  0  0  0  0  0  0  0  0  0
  1  2  1  0  0  0  0
  3  2  1  1  0  0  0
  3  4  1  0  0  0  0
  4  5  1  1  0  0  0
  6  5  1  1  0  0  0
  6  7  1  0  0  0  0
  7  8  1  6  0  0  0
  8  9  1  0  0  0  0
  9 10  2  0  0  0  0
  9 11  1  0  0  0  0
 11 12  4  0  0  0  0
 12 13  1  0  0  0  0
 12 14  4  0  0  0  0
 14 15  4  0  0  0  0
 15 16  4  0  0  0  0
 16 17  4  0  0  0  0
 11 17  4  0  0  0  0
 17 18  4  0  0  0  0
 18 19  4  0  0  0  0
 19 20  1  0  0  0  0
 20 21  1  0  0  0  0
 19 22  4  0  0  0  0
 22 23  4  0  0  0  0
 16 23  4  0  0  0  0
 23 24  1  0  0  0  0
  7 25  1  0  0  0  0
 25 26  2  0  0  0  0
 26 27  1  0  0  0  0
 27 28  3  0  0  0  0
 28 29  1  0  0  0  0
 29 30  1  0  0  0  0
 31 30  1  6  0  0  0
 29 31  1  0  0  0  0
 31 32  1  0  0  0  0
 32 33  3  0  0  0  0
 33 34  1  0  0  0  0
 34 35  2  0  0  0  0
  6 35  1  0  0  0  0
 26 35  1  0  0  0  0
 29 36  1  1  0  0  0
 36 37  1  0  0  0  0
 37 38  1  0  0  0  0
 38 39  1  0  0  0  0
 39 40  2  0  0  0  0
 39 41  1  0  0  0  0
 36 41  1  1  0  0  0
  4 42  1  0  0  0  0
 42 43  1  0  0  0  0
 43 44  1  6  0  0  0
 43 45  1  0  0  0  0
 45 46  1  6  0  0  0
 45 47  1  0  0  0  0
  3 47  1  0  0  0  0
 47 48  1  6  0  0  0
M  END
>  <ID>
4108

>  <PREFERRED_NAME>
zinostatin

>  <CAS_RN>
9014-02-2

>  <SYNONYMS>
zinostatin
holoneocarzinostatin
neocarcinostatin
vinostatin
neocarzinostatin

>  <URL>
http://drugcentral.org/drugcard/4108/view

$$$$
